data_General
_audit_creation_date                    2016-08-01
_audit_creation_method                 'by CrystalStructure 4.0'
_audit_update_record                    ?

#==============================================================================
# PROCESSING SUMMARY (IUCr Office Use Only)

_journal_date_recd_electronic           ?
_journal_date_from_coeditor             ?
_journal_date_accepted                  ?
_journal_coeditor_code                  ?

#==============================================================================
# SUBMISSION DETAILS

_publ_contact_author_name              'Takehiko Mori'
_publ_contact_author_email             mori.t.ae@m.titech.ac.jp
_publ_contact_author_fax               +91-3-5734-2876
_publ_contact_author_phone             +91-3-5734-2427
_publ_contact_author_address		'O-okayama, Meguro-ku, Tokyo 152-8552, Japan'
_publ_contact_letter
;
    ENTER TEXT OF LETTER
;
_publ_requested_journal                'ACS Applied Materials & Interfaces'
_publ_requested_category               FM
_publ_requested_coeditor_name           ?

#==============================================================================
# TITLE AND AUTHOR LIST

_publ_section_title
;
Carrier Charge Polarity in Mixed-Stack Charge-Transfer Crystals Containing Dithienobenzodithiophene (DTBDT)
;
_publ_section_title_footnote
;
    ENTER FOOTNOTE TO TITLE OF PAPER
;
loop_
_publ_author_name
_publ_author_footnote
_publ_author_address
'Kodai Iijima'
;
Department of Materials Science and Engineering, Tokyo Institute of Technology, 
;
;
O-okayama, Meguro-ku, Tokyo 152-8552, Japan
;
_publ_section_synopsis
;
    ENTER SYNOPSIS
;

#==============================================================================
# TEXT

_publ_section_abstract
;
    ENTER ABSTRACT
;
_publ_section_comment
;
    ENTER TEXT
;
_publ_section_references
;
    ENTER OTHER REFERENCES

    Rigaku (2017). CrystalStructure. Version 4.2. 
    Rigaku Corporation, Tokyo, Japan.

    Burla, M. C., Caliandro, R., Camalli, M., Carrozzini, B., 
    Cascarano, G. L., De Caro, L., Giacovazzo, C., Polidori, G. 
    Siliqi, D. and Spagna R. 
    (2007). J. Appl. Cryst. 40, 609-613.
    SIR2008

    Sheldrick, G.M. (2008) SHELXL Version 2018/1, Acta Cryst. A64, 112-122.

;
_publ_section_figure_captions
;
    ENTER FIGURE CAPTIONS
;
_publ_section_exptl_prep
;
    ENTER COMPOUND PREPARATION DETAILS
;
_publ_section_exptl_refinement
;
    ENTER SPECIAL DETAILS OF THE REFINEMENT
;

#==============================================================================
data_Cytidine_(Rigaku_Master_for_Mo)

#==============================================================================
# CHEMICAL DATA

_chemical_formula_sum                             'C24 H14 N4 S4'
_chemical_formula_moiety                          'C14 H6 S4, C10 H8 N4'
_chemical_formula_weight                           486.64
_chemical_melting_point                            ?

#==============================================================================
# CRYSTAL DATA
_space_group_crystal_system                        triclinic
_space_group_name_H-M_alt                         'P -1'
_space_group_name_Hall                            '-P 1'
_space_group_IT_number                             2
loop_
_space_group_symop_id
_space_group_symop_operation_xyz
1   '+X,+Y,+Z'
2   '-X,-Y,-Z'
#------------------------------------------------------------------------------
_cell_length_a                                     7.730(3)
_cell_length_b                                     7.8084(13)
_cell_length_c                                     9.4033(14)
_cell_angle_alpha                                  108.145(12)
_cell_angle_beta                                   96.07(2)
_cell_angle_gamma                                  94.06(3)
_cell_volume                                       533.1(3)
_cell_formula_units_Z                              1
_cell_measurement_reflns_used                      25
_cell_measurement_theta_min                        12.58
_cell_measurement_theta_max                        16.73
_cell_measurement_temperature                      298
#------------------------------------------------------------------------------
_exptl_crystal_description                         plate
_exptl_crystal_colour                              black
_exptl_crystal_size_max                            0.420
_exptl_crystal_size_mid                            0.040
_exptl_crystal_size_min                            0.010
_exptl_crystal_density_diffrn                      1.516
_exptl_crystal_density_meas                        ?
_exptl_crystal_density_method                     'not measured'
_exptl_crystal_F_000                               250.00
_exptl_absorpt_coefficient_mu                      0.467
_exptl_absorpt_correction_type                     psi-scan
_exptl_absorpt_process_details
                                            '(North, Phillips & Mathews, 1968)'
_exptl_absorpt_correction_T_min                    0.872
_exptl_absorpt_correction_T_max                    0.995

#==============================================================================
# EXPERIMENTAL DATA

_diffrn_ambient_temperature                        298
_diffrn_radiation_type                            'Mo K\a'
_diffrn_radiation_wavelength                       0.71069
_diffrn_measurement_device_type                   'Rigaku AFC7R'
_diffrn_measurement_method                         \w-2\q
_diffrn_reflns_number                              2632
_diffrn_reflns_av_R_equivalents                    0.0521
_diffrn_reflns_theta_max                           25.993
_diffrn_reflns_theta_min                           2.666
_diffrn_reflns_theta_full                          25.240
_diffrn_measured_fraction_theta_max                1.000
_diffrn_measured_fraction_theta_full               0.999
_diffrn_reflns_Laue_measured_fraction_max          1.000
_diffrn_reflns_Laue_measured_fraction_full         0.999
_diffrn_reflns_point_group_measured_fraction_max   1.000
_diffrn_reflns_point_group_measured_fraction_full  0.999
_diffrn_reflns_limit_h_min                        -9
_diffrn_reflns_limit_h_max                         5
_diffrn_reflns_limit_k_min                        -9
_diffrn_reflns_limit_k_max                         9
_diffrn_reflns_limit_l_min                        -11
_diffrn_reflns_limit_l_max                         11
_diffrn_standards_number                           3
_diffrn_standards_interval_count                   150
_diffrn_standards_decay_%                          0.439
_reflns_number_total                               2101
_reflns_number_gt                                  1009
_reflns_threshold_expression                       F^2^>2.0\s(F^2^)
_reflns_Friedel_coverage          0.000
_reflns_Friedel_fraction_max      .
_reflns_Friedel_fraction_full     .

#==============================================================================
# REFINEMENT DATA

_refine_special_details
;
    Refinement was performed using all reflections. The weighted 
    R-factor (wR) and goodness of fit (S) are based on F^2^.
    R-factor (gt) are based on F. The threshold expression of
    F^2^ > 2.0 sigma(F^2^) is used only for calculating R-factor (gt).
;
_refine_ls_structure_factor_coef                   Fsqd
_refine_ls_R_factor_all                            0.1944
_refine_ls_R_factor_gt                             0.0832
_refine_ls_wR_factor_ref                           0.2580
_refine_ls_wR_factor_gt                            0.2003
_refine_ls_number_restraints                       0
_refine_ls_hydrogen_treatment                      constr
_refine_ls_number_reflns                           2101
_refine_ls_number_parameters                       146
_refine_ls_goodness_of_fit_ref                     0.988
_refine_ls_weighting_scheme                        calc
_refine_ls_weighting_details
                   'w = 1/[\s^2^(Fo^2^)+(0.1448P)^2^] where P=(Fo^2^+2Fc^2^)/3'
_atom_sites_solution_hydrogens                     geom
_atom_sites_solution_primary                       direct
_atom_sites_solution_secondary                     difmap
_refine_ls_shift/su_max                            0.000
_refine_diff_density_max                           1.21
_refine_diff_density_min                          -0.52
_refine_ls_extinction_method                       none
_refine_ls_extinction_coef                         ?

loop_
_atom_type_symbol
_atom_type_description
_atom_type_scat_dispersion_real
_atom_type_scat_dispersion_imag
_atom_type_scat_source
  'C' 'C'  0.0033 0.0016 
;
International Tables for Crystallography
(Vol. C, Tables 4.2.6.8 and 6.1.1.4)
;
  'H' 'H'  0.0000 0.0000 
;
International Tables for Crystallography
(Vol. C, Table 6.1.1.4)
;
  'N' 'N'  0.0061 0.0033 
;
International Tables for Crystallography
(Vol. C, Tables 4.2.6.8 and 6.1.1.4)
;
  'S' 'S'  0.1246 0.1234 
;
International Tables for Crystallography
(Vol. C, Tables 4.2.6.8 and 6.1.1.4)
;

#==============================================================================
# ATOMIC COORDINATES AND THERMAL PARAMETERS

loop_
 _atom_site_label
 _atom_site_type_symbol
 _atom_site_fract_x
 _atom_site_fract_y
 _atom_site_fract_z
 _atom_site_U_iso_or_equiv
 _atom_site_adp_type
 _atom_site_occupancy
 _atom_site_site_symmetry_order  
 _atom_site_calc_flag
 _atom_site_refinement_flags_posn
 _atom_site_refinement_flags_adp
 _atom_site_refinement_flags_occupancy
 _atom_site_disorder_assembly
 _atom_site_disorder_group
S1 S 0.7015(3) 0.0092(3) 0.2589(2) 0.0533(7) Uani 1 1 d . . . . .
S2 S 0.5720(2) 0.4826(3) 0.17600(19) 0.0456(6) Uani 1 1 d . . . . .
N1 N 0.1392(7) 0.2335(7) 0.2985(6) 0.0365(13) Uani 1 1 d . . . . .
N2 N 0.2287(9) -0.0428(9) 0.3467(8) 0.0576(18) Uani 1 1 d . . . . .
C1 C 0.7449(11) -0.0044(12) 0.0809(10) 0.062(2) Uani 1 1 d . . . . .
H1 H 0.790096 -0.103455 0.018309 0.074 Uiso 1 1 calc R U . . .
C2 C 0.7082(10) 0.1401(14) 0.0397(9) 0.063(2) Uani 1 1 d . . . . .
H2 H 0.723573 0.152116 -0.053606 0.075 Uiso 1 1 calc R U . . .
C3 C 0.6428(9) 0.2725(10) 0.1569(7) 0.0448(18) Uani 1 1 d . . . . .
C4 C 0.6323(8) 0.2201(9) 0.2840(7) 0.0369(16) Uani 1 1 d . . . . .
C5 C 0.5674(8) 0.3526(8) 0.4034(7) 0.0292(14) Uani 1 1 d . . . . .
C6 C 0.5278(8) 0.5059(9) 0.3605(7) 0.0325(15) Uani 1 1 d . . . . .
C7 C 0.4623(8) 0.6532(9) 0.4532(7) 0.0339(15) Uani 1 1 d . . . . .
H7 H 0.438799 0.752376 0.422378 0.041 Uiso 1 1 calc R U . . .
C8 C 0.0710(8) 0.3594(8) 0.3984(7) 0.0315(14) Uani 1 1 d . . . . .
C9 C 0.0260(8) 0.5175(8) 0.3547(7) 0.0308(14) Uani 1 1 d . . . . .
C10 C 0.0411(8) 0.3516(8) 0.5449(7) 0.0310(14) Uani 1 1 d . . . . .
H11 H 0.069804 0.250521 0.570767 0.037 Uiso 1 1 calc R U . . .
C11 C 0.1846(9) 0.0871(9) 0.3321(7) 0.0391(16) Uani 1 1 d . . . . .
C12 C 0.0554(9) 0.5221(9) 0.1993(7) 0.0388(16) Uani 1 1 d . . . . .
H12A H 0.031240 0.637480 0.190252 0.047 Uiso 1 1 calc R U . . .
H12B H -0.021213 0.427477 0.123967 0.047 Uiso 1 1 calc R U . . .
H12C H 0.174773 0.504322 0.185057 0.047 Uiso 1 1 calc R U . . .

loop_
 _atom_site_aniso_label
 _atom_site_aniso_U_11
 _atom_site_aniso_U_22
 _atom_site_aniso_U_33
 _atom_site_aniso_U_23
 _atom_site_aniso_U_13
 _atom_site_aniso_U_12
S1 0.0540(13) 0.0368(11) 0.0587(13) -0.0009(9) 0.0114(10) 0.0065(9)
S2 0.0535(12) 0.0605(13) 0.0246(9) 0.0157(8) 0.0065(8) 0.0064(9)
N1 0.042(3) 0.031(3) 0.031(3) 0.003(2) 0.003(2) 0.000(2)
N2 0.074(5) 0.043(4) 0.056(4) 0.013(3) 0.014(3) 0.009(3)
C1 0.061(5) 0.048(5) 0.062(6) -0.006(4) 0.020(4) 0.007(4)
C2 0.053(5) 0.084(7) 0.032(4) -0.008(4) 0.013(4) -0.003(5)
C3 0.044(4) 0.052(4) 0.029(4) 0.000(3) 0.008(3) -0.002(3)
C4 0.038(4) 0.030(3) 0.036(4) 0.001(3) 0.009(3) -0.001(3)
C5 0.033(3) 0.026(3) 0.024(3) 0.003(3) 0.002(3) -0.002(3)
C6 0.039(4) 0.037(4) 0.021(3) 0.010(3) 0.000(3) 0.000(3)
C7 0.040(4) 0.028(3) 0.034(3) 0.011(3) 0.003(3) 0.005(3)
C8 0.038(4) 0.027(3) 0.025(3) 0.004(3) 0.003(3) -0.001(3)
C9 0.033(4) 0.031(3) 0.027(3) 0.011(3) 0.000(3) -0.002(3)
C10 0.038(4) 0.021(3) 0.036(3) 0.013(3) 0.003(3) 0.003(3)
C11 0.049(4) 0.031(4) 0.035(4) 0.005(3) 0.009(3) 0.010(3)
C12 0.059(4) 0.036(4) 0.029(3) 0.020(3) 0.009(3) 0.006(3)

#==============================================================================
_computing_data_collection                         WinAFC
_computing_cell_refinement                         WinAFC
_computing_data_reduction                          WinAFC
_computing_structure_solution
                                             'Il Milione (Burla, et al., 2007)'
_computing_structure_refinement
                                      'SHELXL Version 2018/1 (Sheldrick, 2008)'
_computing_publication_material
                                          'CrystalStructure 4.2 (Rigaku, 2017)'
_computing_molecular_graphics                     'CrystalStructure 4.2'

#==============================================================================
# MOLECULAR GEOMETRY

_geom_special_details
;
 All esds (except the esd in the dihedral angle between two l.s. planes)
 are estimated using the full covariance matrix.  The cell esds are taken
 into account individually in the estimation of esds in distances, angles
 and torsion angles; correlations between esds in cell parameters are only
 used when they are defined by crystal symmetry.  An approximate (isotropic)
 treatment of cell esds is used for estimating esds involving l.s. planes.
;

loop_
 _geom_bond_atom_site_label_1
 _geom_bond_atom_site_label_2
 _geom_bond_distance
 _geom_bond_site_symmetry_2
 _geom_bond_publ_flag
S1 C1 1.714(9) . ?
S1 C4 1.721(7) . ?
S2 C3 1.728(8) . ?
S2 C6 1.760(6) . ?
N1 C8 1.315(8) . ?
N1 C11 1.337(9) . ?
N2 C11 1.137(9) . ?
C1 C2 1.341(12) . ?
C1 H1 0.9300 . ?
C2 C3 1.422(10) . ?
C2 H2 0.9300 . ?
C3 C4 1.387(10) . ?
C4 C5 1.433(8) . ?
C5 C7 1.405(9) 2_666 ?
C5 C6 1.420(9) . ?
C6 C7 1.375(9) . ?
C7 H7 0.9300 . ?
C8 C10 1.439(9) . ?
C8 C9 1.470(9) . ?
C9 C10 1.335(9) 2_566 ?
C9 C12 1.513(8) . ?
C10 H11 0.9300 . ?
C12 H12A 0.9600 . ?
C12 H12B 0.9600 . ?
C12 H12C 0.9600 . ?

loop_
 _geom_angle_atom_site_label_1
 _geom_angle_atom_site_label_2
 _geom_angle_atom_site_label_3
 _geom_angle
 _geom_angle_site_symmetry_1
 _geom_angle_site_symmetry_3
 _geom_angle_publ_flag
C1 S1 C4 90.6(4) . . ?
C3 S2 C6 91.0(3) . . ?
C8 N1 C11 119.2(6) . . ?
C2 C1 S1 114.2(6) . . ?
C2 C1 H1 122.9 . . ?
S1 C1 H1 122.9 . . ?
C1 C2 C3 111.4(8) . . ?
C1 C2 H2 124.3 . . ?
C3 C2 H2 124.3 . . ?
C4 C3 C2 112.5(8) . . ?
C4 C3 S2 113.0(5) . . ?
C2 C3 S2 134.5(7) . . ?
C3 C4 C5 113.2(6) . . ?
C3 C4 S1 111.3(5) . . ?
C5 C4 S1 135.5(5) . . ?
C7 C5 C6 119.6(6) 2_666 . ?
C7 C5 C4 129.4(6) 2_666 . ?
C6 C5 C4 111.0(5) . . ?
C7 C6 C5 123.4(6) . . ?
C7 C6 S2 124.8(5) . . ?
C5 C6 S2 111.8(5) . . ?
C6 C7 C5 117.1(6) . 2_666 ?
C6 C7 H7 121.5 . . ?
C5 C7 H7 121.5 2_666 . ?
N1 C8 C10 124.3(6) . . ?
N1 C8 C9 116.3(6) . . ?
C10 C8 C9 119.4(5) . . ?
C10 C9 C8 117.4(6) 2_566 . ?
C10 C9 C12 123.8(6) 2_566 . ?
C8 C9 C12 118.7(5) . . ?
C9 C10 C8 123.2(6) 2_566 . ?
C9 C10 H11 118.4 2_566 . ?
C8 C10 H11 118.4 . . ?
N2 C11 N1 173.1(7) . . ?
C9 C12 H12A 109.5 . . ?
C9 C12 H12B 109.5 . . ?
H12A C12 H12B 109.5 . . ?
C9 C12 H12C 109.5 . . ?
H12A C12 H12C 109.5 . . ?
H12B C12 H12C 109.5 . . ?

loop_
 _geom_torsion_atom_site_label_1
 _geom_torsion_atom_site_label_2
 _geom_torsion_atom_site_label_3
 _geom_torsion_atom_site_label_4
 _geom_torsion
 _geom_torsion_site_symmetry_1
 _geom_torsion_site_symmetry_2
 _geom_torsion_site_symmetry_3
 _geom_torsion_site_symmetry_4
 _geom_torsion_publ_flag
C4 S1 C1 C2 -0.7(7) . . . . ?
S1 C1 C2 C3 0.7(10) . . . . ?
C1 C2 C3 C4 -0.2(10) . . . . ?
C1 C2 C3 S2 -179.6(6) . . . . ?
C6 S2 C3 C4 0.5(5) . . . . ?
C6 S2 C3 C2 179.9(8) . . . . ?
C2 C3 C4 C5 179.7(6) . . . . ?
S2 C3 C4 C5 -0.7(7) . . . . ?
C2 C3 C4 S1 -0.3(8) . . . . ?
S2 C3 C4 S1 179.2(4) . . . . ?
C1 S1 C4 C3 0.6(5) . . . . ?
C1 S1 C4 C5 -179.5(7) . . . . ?
C3 C4 C5 C7 179.4(6) . . . 2_666 ?
S1 C4 C5 C7 -0.6(12) . . . 2_666 ?
C3 C4 C5 C6 0.6(8) . . . . ?
S1 C4 C5 C6 -179.4(5) . . . . ?
C7 C5 C6 C7 0.7(11) 2_666 . . . ?
C4 C5 C6 C7 179.6(6) . . . . ?
C7 C5 C6 S2 -179.1(5) 2_666 . . . ?
C4 C5 C6 S2 -0.2(7) . . . . ?
C3 S2 C6 C7 180.0(6) . . . . ?
C3 S2 C6 C5 -0.2(5) . . . . ?
C5 C6 C7 C5 -0.7(11) . . . 2_666 ?
S2 C6 C7 C5 179.1(5) . . . 2_666 ?
C11 N1 C8 C10 0.1(10) . . . . ?
C11 N1 C8 C9 179.3(6) . . . . ?
N1 C8 C9 C10 -179.0(6) . . . 2_566 ?
C10 C8 C9 C10 0.2(10) . . . 2_566 ?
N1 C8 C9 C12 1.8(9) . . . . ?
C10 C8 C9 C12 -179.0(5) . . . . ?
N1 C8 C10 C9 179.0(6) . . . 2_566 ?
C9 C8 C10 C9 -0.2(11) . . . 2_566 ?

#==============================================================================

#==============================================================================
# Additional structures and associated data_? identifiers
# should be added at this point if there is more than one 
# structure analysis in the CIF.

_shelx_res_file
;
TITL Cytidine (Rigaku Master for Mo)
    shelxl.res
    created by SHELXL-2018/1 at 16:06:38 on 05-Mar-2018
CELL  0.71069 7.72980 7.80840 9.40330 108.14500 96.07020 94.06000
ZERR  1 0.00330 0.00130 0.00140 0.01170 0.02170 0.02540
LATT 1
SFAC C H N S
UNIT 24 14 4 4
SHEL 8.146492 0.810603
L.S. 30
FMAP 2
PLAN 25
WPDB -2
HTAB
BOND $H
CONF
LIST 4
TEMP 25.0
ACTA
SIZE 0.420 0.040 0.010
WGHT    0.144800
FVAR       0.83194
S1    4    0.701501    0.009238    0.258924    11.00000    0.05402    0.03684 =
         0.05873   -0.00091    0.01141    0.00654
S2    4    0.571964    0.482603    0.176004    11.00000    0.05348    0.06049 =
         0.02464    0.01568    0.00648    0.00644
N1    3    0.139187    0.233451    0.298467    11.00000    0.04190    0.03136 =
         0.03077    0.00343    0.00308    0.00037
N2    3    0.228720   -0.042846    0.346729    11.00000    0.07366    0.04276 =
         0.05582    0.01256    0.01445    0.00949
C1    1    0.744937   -0.004382    0.080912    11.00000    0.06117    0.04770 =
         0.06219   -0.00613    0.01991    0.00669
AFIX  43
H1    2    0.790096   -0.103455    0.018309    11.00000   -1.20000
AFIX   0
C2    1    0.708202    0.140083    0.039720    11.00000    0.05335    0.08384 =
         0.03230   -0.00800    0.01315   -0.00296
AFIX  43
H2    2    0.723573    0.152116   -0.053606    11.00000   -1.20000
AFIX   0
C3    1    0.642763    0.272542    0.156850    11.00000    0.04389    0.05166 =
         0.02936    0.00014    0.00755   -0.00173
C4    1    0.632347    0.220110    0.283997    11.00000    0.03844    0.03008 =
         0.03569    0.00110    0.00949   -0.00115
C5    1    0.567370    0.352579    0.403449    11.00000    0.03310    0.02614 =
         0.02409    0.00345    0.00227   -0.00160
C6    1    0.527786    0.505865    0.360467    11.00000    0.03863    0.03664 =
         0.02106    0.00972    0.00014    0.00015
C7    1    0.462347    0.653237    0.453197    11.00000    0.04000    0.02770 =
         0.03416    0.01057    0.00335    0.00530
AFIX  43
H7    2    0.438799    0.752376    0.422378    11.00000   -1.20000
AFIX   0
C8    1    0.071010    0.359358    0.398418    11.00000    0.03807    0.02746 =
         0.02496    0.00426    0.00255   -0.00060
C9    1    0.025973    0.517495    0.354664    11.00000    0.03348    0.03131 =
         0.02679    0.01070    0.00027   -0.00213
C10   1    0.041068    0.351604    0.544852    11.00000    0.03804    0.02133 =
         0.03579    0.01272    0.00333    0.00290
AFIX  43
H11   2    0.069804    0.250521    0.570767    11.00000   -1.20000
AFIX   0
C11   1    0.184560    0.087128    0.332064    11.00000    0.04929    0.03059 =
         0.03510    0.00493    0.00927    0.01018
C12   1    0.055381    0.522116    0.199285    11.00000    0.05912    0.03616 =
         0.02865    0.02021    0.00909    0.00574
AFIX 137
H12A  2    0.031240    0.637480    0.190252    11.00000   -1.20000
H12B  2   -0.021213    0.427477    0.123967    11.00000   -1.20000
H12C  2    0.174773    0.504322    0.185057    11.00000   -1.20000
AFIX   0
HKLF 4




REM  Cytidine (Rigaku Master for Mo)
REM R1 =  0.0832 for    1009 Fo > 4sig(Fo)  and  0.1944 for all    2101 data
REM    146 parameters refined using      0 restraints

END

WGHT      0.1448      0.0000

REM Instructions for potential hydrogen bonds
EQIV $3 -x+1, -y, -z
HTAB C2 N2_$3
EQIV $4 x, y+1, z
HTAB C7 N2_$4

REM Highest difference peak  1.212,  deepest hole -0.518,  1-sigma level  0.155
Q1    1   0.4292  0.4980  0.1816  11.00000  0.05    1.21
Q2    1  -0.1333  0.4901  0.1820  11.00000  0.05    0.99
Q3    1   0.7220  0.4900  0.1826  11.00000  0.05    0.94
Q4    1   0.8522  0.0109  0.2628  11.00000  0.05    0.89
Q5    1   0.3076  0.5010  0.1795  11.00000  0.05    0.87
Q6    1   0.5615  0.0102  0.2608  11.00000  0.05    0.82
Q7    1   0.4482  0.0161  0.2598  11.00000  0.05    0.66
Q8    1   0.1773  0.5175  0.3590  11.00000  0.05    0.58
Q9    1   0.7987  0.2429  0.2912  11.00000  0.05    0.51
Q10   1   0.3511  0.2308  0.3034  11.00000  0.05    0.50
Q11   1   0.4128  0.3556  0.3971  11.00000  0.05    0.50
Q12   1   0.8437  0.2386  0.2969  11.00000  0.05    0.49
Q13   1   0.8211  0.3478  0.3997  11.00000  0.05    0.48
Q14   1   0.6874  0.5198  0.3613  11.00000  0.05    0.45
Q15   1   0.2599  0.0049  0.2445  11.00000  0.05    0.45
Q16   1   0.1581  0.3439  0.5707  11.00000  0.05    0.44
Q17   1  -0.0114 -0.0077  0.3598  11.00000  0.05    0.43
Q18   1   0.3255  0.6441  0.4410  11.00000  0.05    0.43
Q19   1   0.7084  0.6392  0.4536  11.00000  0.05    0.42
Q20   1   0.1688  0.4811  0.6454  11.00000  0.05    0.41
Q21   1   0.2169  0.3507  0.4151  11.00000  0.05    0.41
Q22   1   0.6205  0.6599  0.4452  11.00000  0.05    0.40
Q23   1  -0.1183  0.3350  0.5360  11.00000  0.05    0.40
Q24   1   0.0054  0.2377  0.2932  11.00000  0.05    0.40
Q25   1  -0.0930  0.5196  0.3748  11.00000  0.05    0.37
;

_shelx_res_checksum   54584

_shelx_hkl_file
;
   0   0   2 2463.17   22.48
   0   0  -2 2421.81   22.36
   0   0   3   90.84    6.97
   0   0  -3   72.69    7.24
   0   0   4   74.70    6.96
   0   0  -4   61.90    6.03
   0   0   5  133.73   12.54
   0   0  -5  129.99   12.89
   0   0   6   62.03    7.16
   0   0  -6   89.40    7.24
   0   0   7   -8.29   12.56
   0   0  -7   15.21   12.40
   0   0   8   75.12    8.53
   0   0  -8   88.38    8.82
   0   0   9  123.40   10.38
   0   0  -9  116.85   10.64
   0   0  10    3.09   16.18
   0   0 -10   30.43    8.77
   0   0  11   78.50   11.25
   0   0 -11   82.17   11.28
   0   0  12  -30.63   18.39
   0   0 -12    9.57   17.03
   0   1 -12   20.50   10.03
   0  -1  12   20.93    9.50
   0   1 -11   50.14   10.18
   0  -1  11   -4.85   17.98
   0   1 -10   27.26    8.11
   0  -1  10   15.42   15.86
   0   1  -9    9.57    9.32
   0  -1   9    4.27   13.45
   0   1  -8  624.90   24.97
   0  -1   8  692.24   26.37
   0   1  -7  -26.98   12.25
   0  -1   7   -5.05   10.92
   0   1  -6  449.30   18.77
   0  -1   6  442.85   17.85
   0   1  -5 2012.55   31.46
   0  -1   5 2039.40   31.64
   0   1  -4 2286.53   29.10
   0  -1   4 2479.35   30.20
   0   1  -3 1436.68   20.88
   0  -1   3 1494.83   20.79
   0   1  -2   73.64    7.35
   0  -1   2   89.07    7.14
   0   1  -1 3567.84   20.12
   0  -1   1 3735.86   20.57
   0   1   0  377.74    7.45
   0  -1   0  391.02    7.59
   0   1   1  319.53    9.52
   0  -1  -1  326.20    9.62
   0   1   2   26.04    5.09
   0  -1  -2   30.66    5.06
   0   1   3 2598.51   30.41
   0  -1  -3 2550.21   30.17
   0   1   4  171.85   12.50
   0  -1  -4  184.64   13.22
   0   1   5  573.01   19.62
   0  -1  -5  505.09   20.31
   0   1   6  451.23   20.77
   0  -1  -6  448.63   21.10
   0   1   7   20.65   13.97
   0  -1  -7   15.83    7.67
   0   1   8   15.66    7.95
   0  -1  -8    3.54   13.51
   0   1   9   54.24    9.35
   0  -1  -9   71.34    9.48
   0   1  10   10.67   15.83
   0  -1 -10    6.00   16.68
   0   1  11   61.11   11.07
   0  -1 -11   77.86   11.15
   0   1  12   25.07   17.64
   0  -1 -12   21.14   10.23
   0   2 -13   84.78   12.05
   0  -2  13   59.10   11.95
   0   2 -12   79.91   12.05
   0  -2  12   72.12   11.72
   0   2 -11  110.47   11.22
   0  -2  11   96.34   11.02
   0   2 -10    3.75   14.72
   0  -2  10    6.77   14.61
   0   2  -9   -8.76   13.46
   0  -2   9   -3.51   12.76
   0   2  -8   65.33    8.61
   0  -2   8   55.45    8.15
   0   2  -7   36.17    7.33
   0  -2   7   46.36    6.73
   0   2  -6    2.42   10.22
   0  -2   6   -2.90    9.73
   0   2  -5 1150.13   24.60
   0  -2   5 1081.22   23.58
   0   2  -4   -5.54    8.61
   0  -2   4    0.89    7.73
   0   2  -3  131.01   10.28
   0  -2   3  129.95   10.22
   0   2  -2 1745.83   21.00
   0  -2   2 1639.73   20.36
   0   2  -1  290.25   10.96
   0  -2   1  294.11   10.97
   0   2   0 3445.03   28.39
   0  -2   0 3163.24   27.34
   0   2   1   66.29    6.41
   0  -2  -1   31.79    5.42
   0   2   2 1053.81   20.51
   0  -2  -2  948.33   20.17
   0   2   3   11.66    9.48
   0  -2  -3   12.35    5.60
   0   2   4  138.82   13.21
   0  -2  -4  133.29   12.81
   0   2   5    3.04   10.62
   0  -2  -5   11.56   10.55
   0   2   6  145.10   11.00
   0  -2  -6  126.11   11.37
   0   2   7  587.33   26.03
   0  -2  -7  485.70   24.31
   0   2   8   49.94    9.77
   0  -2  -8   59.11    9.95
   0   2   9   18.94   18.46
   0  -2  -9   46.70    9.84
   0   2  10   28.19   10.13
   0  -2 -10   15.04   10.90
   0   2  11   21.33   18.40
   0  -2 -11   15.55   21.88
   0   3 -13   75.59   12.09
   0  -3  13   82.20   12.05
   0   3 -12   -7.74   16.46
   0  -3  12   10.02   16.56
   0   3 -11   66.63   10.60
   0  -3  11   91.15   10.22
   0   3 -10   16.48    8.26
   0  -3  10   -7.26   13.90
   0   3  -9   23.86    8.43
   0  -3   9   34.63    7.71
   0   3  -8  180.06   12.29
   0  -3   8  187.53   17.25
   0   3  -7   48.75    7.29
   0  -3   7   58.87    6.75
   0   3  -6  558.13   19.83
   0  -3   6  477.88   18.85
   0   3  -5  127.21   12.01
   0  -3   5  121.82   11.40
   0   3  -4    7.76    9.57
   0  -3   4   12.80    8.99
   0   3  -3  147.58   10.60
   0  -3   3  148.25   10.55
   0   3  -2  353.27   13.34
   0  -3   2  356.70   13.39
   0   3  -1 1588.84   24.11
   0  -3   1 1578.21   23.89
   0   3   0   88.48    7.24
   0  -3   0   96.34    7.04
   0   3   1  199.37   11.92
   0  -3  -1  206.01   12.39
   0   3   2   51.79    6.11
   0  -3  -2   66.43    5.98
   0   3   3   -0.50    8.76
   0  -3  -3   14.18    9.75
   0   3   4  200.76   14.96
   0  -3  -4  199.56   16.31
   0   3   5  104.98    8.46
   0  -3  -5  118.19   10.70
   0   3   6  876.96   30.87
   0  -3  -6  890.94   30.92
   0   3   7   61.03    9.37
   0  -3  -7   55.90    9.61
   0   3   8   35.95    9.61
   0  -3  -8   60.07    9.81
   0   3   9    4.84   15.40
   0  -3  -9   15.96   17.76
   0   3  10   20.95   17.17
   0  -3 -10  -51.17   21.45
   0   4 -13    8.64   18.03
   0  -4  13    0.13   17.35
   0   4 -12   -5.26   16.70
   0  -4  12   -9.10   16.57
   0   4 -11   89.65   10.88
   0  -4  11  132.09   13.00
   0   4 -10  -21.73   16.14
   0  -4  10    3.25   13.98
   0   4  -9   82.82    8.86
   0  -4   9   81.62    9.22
   0   4  -8   -7.03   12.27
   0  -4   8    5.25   12.65
   0   4  -7  141.18    9.94
   0  -4   7  137.18   10.20
   0   4  -6  315.40   17.20
   0  -4   6  311.32   17.42
   0   4  -5   16.69    5.51
   0  -4   5    9.62    9.61
   0   4  -4    3.74    9.63
   0  -4   4    7.32    9.14
   0   4  -3   12.40    5.38
   0  -4   3   12.38   10.09
   0   4  -2 2361.62   32.82
   0  -4   2 2736.65   35.42
   0   4  -1  107.50    8.27
   0  -4   1  154.91   11.85
   0   4   0 1305.34   26.17
   0  -4   0 1521.80   27.99
   0   4   1  131.28   12.21
   0  -4  -1  136.23   12.78
   0   4   2 1227.38   28.53
   0  -4  -2 1314.98   29.86
   0   4   3    7.68    7.61
   0  -4  -3   -7.62   11.74
   0   4   4   13.99   12.03
   0  -4  -4    9.77   11.65
   0   4   5    0.68   12.99
   0  -4  -5  -17.10   14.33
   0   4   6   -4.92   15.04
   0  -4  -6  -25.23   15.27
   0   4   7   23.43   15.69
   0  -4  -7   22.38    9.24
   0   4   8   -3.63   16.10
   0  -4  -8    9.68   14.91
   0   4   9   24.13   18.53
   0  -4  -9   30.88   11.23
   0   4  10   19.50   13.66
   0  -4 -10   15.00   20.67
   0   5 -13    0.00   20.11
   0  -5  13   14.75   18.66
   0   5 -12    6.94   18.05
   0  -5  12  -27.61   18.24
   0   5 -11   85.95   10.84
   0  -5  11   56.71   10.86
   0   5 -10   21.06   14.44
   0  -5  10    3.16   15.37
   0   5  -9    3.85   13.26
   0  -5   9  -26.94   13.55
   0   5  -8   78.57    9.12
   0  -5   8  118.58   11.09
   0   5  -7  297.38   18.97
   0  -5   7  406.67   21.25
   0   5  -6 1144.64   31.34
   0  -5   6 1562.31   35.55
   0   5  -5   57.89    6.95
   0  -5   5   80.48    7.08
   0   5  -4  128.48    9.55
   0  -5   4  175.71   13.30
   0   5  -3  -10.07   10.89
   0  -5   3   12.78   10.48
   0   5  -2   34.36    6.42
   0  -5   2   41.42    6.61
   0   5  -1    1.33   12.01
   0  -5   1   34.73    6.27
   0   5   0   -2.73   11.54
   0  -5   0   -3.90   10.42
   0   5   1   79.08    7.25
   0  -5  -1   74.24    7.70
   0   5   2  112.84   10.61
   0  -5  -2  136.99   10.90
   0   5   3  255.50   18.93
   0  -5  -3  258.61   20.74
   0   5   4  221.75   14.90
   0  -5  -4  310.41   21.24
   0   5   5  174.91   13.90
   0  -5  -5  161.28   13.57
   0   5   6    0.15   16.27
   0  -5  -6   16.98   16.80
   0   5   7    1.18   15.41
   0  -5  -7   -7.11   15.08
   0   5   8  -17.58   18.53
   0  -5  -8   19.95   10.52
   0   5   9   18.98   10.27
   0  -5  -9   16.47   15.40
   0   6 -12  -17.95   17.84
   0  -6  12    0.00   17.24
   0   6 -11  159.47   13.20
   0  -6  11  191.17   15.47
   0   6 -10    1.30   13.10
   0  -6  10    5.81   14.87
   0   6  -9   30.73    8.55
   0  -6   9   39.96    8.64
   0   6  -8    5.54   12.97
   0  -6   8  -17.38   14.45
   0   6  -7  168.36   12.68
   0  -6   7  180.11   17.86
   0   6  -6   17.84   12.35
   0  -6   6  -25.27   12.91
   0   6  -5  226.38   17.24
   0  -6   5  228.46   17.62
   0   6  -4   58.79    7.93
   0  -6   4   50.40    7.77
   0   6  -3  185.99   15.81
   0  -6   3  192.64   16.36
   0   6  -2  115.72   10.62
   0  -6   2  123.91   10.44
   0   6  -1   -9.53   11.98
   0  -6   1   -7.49   12.61
   0   6   0  498.36   23.04
   0  -6   0  529.90   23.92
   0   6   1   50.97    7.55
   0  -6  -1    0.95   14.58
   0   6   2   -2.79   13.57
   0  -6  -2   22.11    7.65
   0   6   3   -4.71   14.22
   0  -6  -3  -17.54   14.69
   0   6   4    2.00   14.98
   0  -6  -4   -7.01   15.08
   0   6   5    7.57   15.53
   0  -6  -5   -0.13   15.50
   0   6   6   18.07   12.72
   0  -6  -6   15.64   10.15
   0   6   7   -9.12   17.64
   0  -6  -7   11.05   18.11
   0   6   8   25.52   18.33
   0  -6  -8   16.52   17.96
   0   7 -12   -4.17   18.48
   0  -7  12   17.40   16.54
   0   7 -11   17.94   19.87
   0  -7  11   37.18   10.87
   0   7 -10   -0.17   17.77
   0  -7  10    1.05   15.57
   0   7  -9   -5.43   15.40
   0  -7   9    2.00   14.30
   0   7  -8  148.83   11.05
   0  -7   8  156.58   13.06
   0   7  -7   10.75    9.19
   0  -7   7    2.90   13.49
   0   7  -6   41.80    8.83
   0  -7   6   47.57    8.44
   0   7  -5    0.96   13.29
   0  -7   5   24.10    7.34
   0   7  -4   11.03   14.10
   0  -7   4   19.99    7.50
   0   7  -3    8.63   13.66
   0  -7   3   11.04    9.00
   0   7  -2   32.71    7.59
   0  -7   2  -25.60   14.54
   0   7  -1   72.15    8.26
   0  -7   1   79.85    8.55
   0   7   0   99.03    9.86
   0  -7   0  106.89    9.41
   0   7   1  180.38   13.77
   0  -7  -1  147.48   13.83
   0   7   2   89.80    9.63
   0  -7  -2   58.63    9.88
   0   7   3    7.71   15.70
   0  -7  -3  -10.69   14.82
   0   7   4  115.64   12.16
   0  -7  -4  126.93   11.38
   0   7   5   19.31   14.22
   0  -7  -5   44.37   10.92
   0   7   6    0.00   19.90
   0  -7  -6    1.39   19.95
   0   8 -11   16.45   17.27
   0  -8  11   -0.12   16.60
   0   8 -10  -23.13   17.98
   0  -8  10   14.57   10.59
   0   8  -9  -12.16   15.55
   0  -8   9  -19.34   16.61
   0   8  -8   37.81   10.12
   0  -8   8   32.15    9.98
   0   8  -7   14.76   10.63
   0  -8   7    0.00   14.84
   0   8  -6   17.58   15.00
   0  -8   6  -17.15   14.84
   0   8  -5   91.05    9.43
   0  -8   5   71.75    9.88
   0   8  -4    5.71   10.24
   0  -8   4   12.70    7.64
   0   8  -3   -0.81   14.25
   0  -8   3   -6.49   14.06
   0   8  -2   -6.61   15.82
   0  -8   2   22.66   15.51
   0   8  -1   -9.95   16.32
   0  -8   1    6.70   14.81
   0   8   0  243.69   16.10
   0  -8   0  225.34   15.95
   0   8   1   17.88   13.03
   0  -8  -1  -16.75   15.84
   0   8   2   35.01   11.40
   0  -8  -2   51.21   10.50
   0   8   3   20.58   16.34
   0  -8  -3    4.06   15.99
   0   8   4   -3.06   19.59
   0  -8  -4    6.46   19.07
   0   8   5   -2.64   18.42
   0  -8  -5   24.59   10.66
   0   9 -10   -4.51   17.81
   0  -9  10   11.08   15.60
   0   9  -9    5.45   16.20
   0  -9   9   12.13   17.72
   0   9  -8   59.46   11.76
   0  -9   8   86.03   11.27
   0   9  -7  -12.04   17.80
   0  -9   7   12.95   10.86
   0   9  -6   40.07   10.21
   0  -9   6   56.70    9.66
   0   9  -5    5.73   15.45
   0  -9   5   10.20   16.08
   0   9  -4   31.79    9.76
   0  -9   4   14.17   11.30
   0   9  -3   14.17   14.42
   0  -9   3   -7.99   14.59
   0   9  -2   15.64   14.45
   0  -9   2  -24.25   15.91
   0   9  -1   20.32    8.34
   0  -9   1    8.05   15.48
   0   9   0   36.82   10.42
   0  -9   0   25.74    9.84
   0   9   1   26.16   10.18
   0  -9  -1   21.80    9.87
   0   9   2   -7.95   19.39
   0  -9  -2   18.23   17.92
   0   9   3    2.59   20.43
   0  -9  -3  -44.33   20.35
   0  10  -8   -3.09   17.84
   0 -10   8   20.94   14.85
   0  10  -7    2.66   19.63
   0 -10   7   18.61    9.53
   0  10  -6    6.72   17.22
   0 -10   6   16.98   14.85
   0  10  -5  -18.18   18.05
   0 -10   5   -5.26   15.25
   0  10  -4  -15.54   18.84
   0 -10   4   20.36   17.10
   0  10  -3   17.82   16.73
   0 -10   3    1.12   18.64
   0  10  -2   46.43   11.24
   0 -10   2   58.19   10.59
   0  10  -1    2.84   18.45
   0 -10   1   19.02   19.32
   0  10   0    6.97   16.98
   0 -10   0   24.03   16.62
   0  10   1   -1.49   17.50
   0 -10  -1    8.98   15.97
  -1  10   1    0.14   19.18
  -1  10   0    5.43   20.50
  -1  10  -1   26.82   18.27
  -1  10  -2   23.00   17.66
  -1  10  -3   -3.99   18.15
  -1  10  -4   -7.82   17.98
  -1  10  -5   10.14    9.91
  -1  10  -6   19.62   16.85
  -1  10  -7   -8.03   17.04
  -1  10  -8  -15.86   17.79
  -1   9   3  -24.82   19.53
  -1   9   2    5.16   18.59
  -1   9   1    4.04   17.79
  -1   9   0   13.24   17.35
  -1   9  -1   14.93   14.54
  -1   9  -2  -17.36   16.04
  -1   9  -3   14.11   15.63
  -1   9  -4    8.63   16.00
  -1   9  -5   19.51    9.42
  -1   9  -6    4.55   15.68
  -1   9  -7   27.29    9.78
  -1   9  -8    5.74   12.55
  -1   9  -9   -3.91   15.91
  -1   9 -10   18.63    9.83
  -1   8   5    2.59   18.84
  -1   8   4   -0.14   17.71
  -1   8   3   -1.46   14.41
  -1   8   2  -16.27   17.40
  -1   8   1   45.31    9.91
  -1   8   0   22.46   16.59
  -1   8  -1   78.91    9.69
  -1   8  -2   20.69   15.22
  -1   8  -3   13.39   14.89
  -1   8  -4    6.66   14.22
  -1   8  -5   -7.87   13.98
  -1   8  -6   11.13   12.14
  -1   8  -7    4.26   14.91
  -1   8  -8   -5.53   15.72
  -1   8  -9   -4.55   15.30
  -1   8 -10   -2.84   16.61
  -1   8 -11   -2.58   16.34
  -1   7   7   24.11   18.32
  -1   7   6  -20.46   18.57
  -1   7   5   17.90   10.10
  -1   7   4   64.89    9.64
  -1   7   3    6.54   15.02
  -1   7   2   32.46    8.90
  -1   7   1   -1.08   14.55
  -1   7   0   69.37    8.82
  -1   7  -1   12.00   14.30
  -1   7  -2    2.24   13.43
  -1   7  -3   46.47    8.50
  -1   7  -4   19.79    7.56
  -1   7  -5   63.54    8.63
  -1   7  -6    8.58   13.27
  -1   7  -7   19.61   13.82
  -1   7  -8   18.08   13.93
  -1   7  -9   14.76   10.23
  -1   7 -10    2.68   16.87
  -1   7 -11   18.80   16.64
  -1   7 -12   20.63   18.73
  -1   6   8    4.57   19.27
  -1   6   7    0.30   10.34
  -1   6   6   -4.78   16.92
  -1   6   5   -4.34   14.38
  -1   6   4    5.92   14.50
  -1   6   3  -22.60   14.15
  -1   6   2   14.79   13.64
  -1   6   1  142.99   11.70
  -1   6   0   74.18    8.28
  -1   6  -1  383.99   20.61
  -1   6  -2   92.66    8.08
  -1   6  -3   88.75    8.03
  -1   6  -4    4.68   11.43
  -1   6  -5   12.17   11.63
  -1   6  -6   17.23   11.81
  -1   6  -7   -3.95   14.09
  -1   6  -8   15.43   13.55
  -1   6  -9  -15.01   15.35
  -1   6 -10   -7.80   16.17
  -1   6 -11    7.60   17.27
  -1   6 -12   -5.78   18.99
  -1   5   9    0.27   17.98
  -1   5   8    9.99    9.95
  -1   5   7   16.12   10.25
  -1   5   6   45.05   10.24
  -1   5   5   38.89   10.13
  -1   5   4  222.64   19.44
  -1   5   3   -5.14   12.48
  -1   5   2  207.54   16.71
   1  -5  -1    1.72   11.19
  -1   5   1    7.32   10.62
   1  -5   0   10.83    6.35
  -1   5   0   17.14    6.08
   1  -5   1   43.84    6.67
  -1   5  -1   44.08    6.55
   1  -5   2   12.07    9.79
  -1   5  -2   -2.37    9.85
   1  -5   3   77.21    7.61
  -1   5  -3   89.05    8.80
   1  -5   4   83.58    7.13
  -1   5  -4   89.72    7.31
  -1   5  -5  183.76   15.58
  -1   5  -6    2.57   11.39
  -1   5  -7   42.05    7.40
  -1   5  -8   31.87    8.82
  -1   5  -9  -32.42   16.40
  -1   5 -10   24.92    9.52
  -1   5 -11   13.10   14.17
  -1   5 -12    9.61   17.27
  -1   4  10   34.72   11.45
  -1   4   9   30.74   10.55
  -1   4   8    7.30   16.01
  -1   4   7   -0.80   14.15
  -1   4   6  -31.95   14.96
  -1   4   5   -7.30   13.15
  -1   4   4   17.29   12.81
   1  -4  -3  253.77   16.91
  -1   4   3  251.15   16.19
   1  -4  -2   10.70   10.88
  -1   4   2    8.60    9.21
   1  -4  -1  479.30   17.93
  -1   4   1  466.95   18.11
   1  -4   0  185.06   13.16
  -1   4   0  159.27   12.44
   1  -4   1  566.06   18.07
  -1   4  -1  473.78   17.28
   1  -4   2  358.46   15.85
  -1   4  -2  332.71   14.80
   1  -4   3    0.60    9.64
  -1   4  -3   11.97    9.25
   1  -4   4    9.11    5.22
  -1   4  -4   18.10    5.28
   1  -4   5   15.34    6.09
  -1   4  -5    8.76    9.89
  -1   4  -6   15.26   10.88
  -1   4  -7   -6.39   11.19
  -1   4  -8   11.98    8.54
  -1   4  -9   12.93   15.47
  -1   4 -10   -7.05   15.89
  -1   4 -11   72.01   10.26
  -1   4 -12  -19.24   16.99
  -1   3  10   -3.85   17.25
  -1   3   9   30.11   10.17
  -1   3   8    0.15   15.87
  -1   3   7  136.79   12.80
  -1   3   6  195.44   18.41
  -1   3   5   21.92    8.03
   1  -3  -4  213.21   15.66
  -1   3   4  214.19   14.80
   1  -3  -3    9.51   10.05
  -1   3   3    5.02    9.73
   1  -3  -2   -8.28   10.05
  -1   3   2    8.45    6.21
   1  -3  -1    4.53    5.35
  -1   3   1   -6.23    8.82
   1  -3   0   10.39    8.69
  -1   3   0    0.68    8.36
   1  -3   1  113.12   10.58
  -1   3  -1  105.93    7.45
   1  -3   2    9.63    9.07
  -1   3  -2   10.29    8.71
   1  -3   3  313.32   12.91
  -1   3  -3  308.70   13.14
   1  -3   4    4.44    8.44
  -1   3  -4    0.00    8.65
   1  -3   5  249.50   14.65
  -1   3  -5  282.43   15.01
   1  -3   6   11.63   10.47
  -1   3  -6   -3.33    9.90
  -1   3  -7  118.23   10.53
  -1   3  -8  -17.23   14.28
  -1   3  -9    2.59   12.82
  -1   3 -10   -1.93   15.28
  -1   3 -11   16.24   11.51
  -1   3 -12   -8.76   17.56
  -1   2  11   29.66    9.61
  -1   2  10   42.11    9.53
  -1   2   9   49.47   10.29
  -1   2   8    8.82   13.30
  -1   2   7  -14.43   12.41
  -1   2   6    2.04   11.64
   1  -2  -5  111.71    9.93
  -1   2   5  124.86    9.48
   1  -2  -4   -1.57    7.85
  -1   2   4    2.10    6.64
   1  -2  -3  175.13   12.68
  -1   2   3  201.63   12.15
   1  -2  -2   62.54    5.46
  -1   2   2   43.61    5.52
   1  -2  -1  698.31   16.37
  -1   2   1  744.79   16.21
   1  -2   0  144.22   10.28
  -1   2   0  181.17   10.07
   1  -2   1  189.07   10.69
  -1   2  -1  188.33   10.39
   1  -2   2  198.95   10.79
  -1   2  -2  222.13   10.30
   1  -2   3  167.58   10.83
  -1   2  -3  149.74   10.77
   1  -2   4   88.00    7.14
  -1   2  -4   76.47    6.95
   1  -2   5   23.86    5.65
  -1   2  -5   10.39    9.74
   1  -2   6    6.79   10.10
  -1   2  -6    4.59   10.69
  -1   2  -7    8.80   11.79
  -1   2  -8   12.52   13.50
  -1   2  -9   29.85    8.00
  -1   2 -10   21.74   15.00
  -1   2 -11   13.95   17.77
  -1   2 -12    8.10   17.18
  -1   1  12    5.97   19.09
  -1   1  11   12.93    9.17
  -1   1  10   -9.11   14.85
  -1   1   9   -4.19   15.35
  -1   1   8   40.05    8.37
  -1   1   7  167.92   16.72
   1  -1  -6  220.07   16.85
  -1   1   6  222.46   15.58
   1  -1  -5  435.26   18.52
  -1   1   5  439.85   18.29
   1  -1  -4  568.42   18.35
  -1   1   4  581.09   18.23
   1  -1  -3   32.29    5.54
  -1   1   3   34.88    5.04
   1  -1  -2   32.97    5.32
  -1   1   2   36.15    4.97
  -1   1   1   78.05    5.41
  -1   1   0   39.29    3.34
  -1   1  -1   60.74    6.02
   1  -1   2    2.65    7.31
  -1   1  -2    6.28    7.12
   1  -1   3  215.66   11.47
  -1   1  -3  235.71   11.83
   1  -1   4   -0.69    9.42
  -1   1  -4    0.09    8.96
   1  -1   5  613.20   19.19
  -1   1  -5  716.43   20.73
   1  -1   6   50.73    7.15
  -1   1  -6   60.15    7.41
  -1   1  -7  123.85   10.38
  -1   1  -8   56.73    8.21
  -1   1  -9  -13.35   13.96
  -1   1 -10    5.25   14.50
  -1   1 -11   14.14   17.20
  -1   1 -12    0.00   18.60
  -1   0  12   37.38    9.91
  -1   0  11   -1.42   14.49
  -1   0  10   57.29    9.41
  -1   0   9   25.87    8.26
  -1   0   8   53.73    7.69
  -1   0   7   10.24   11.53
   1   0  -6   -4.42   11.59
  -1   0   6   11.57   10.23
   1   0  -5  479.19   18.64
  -1   0   5  649.17   19.52
   1   0  -4   30.19    5.82
  -1   0   4   54.56    5.24
   1   0  -3  551.72   15.29
  -1   0   3  657.46   15.85
   1   0  -2  562.09   13.13
  -1   0   2  663.22   13.59
  -1   0   1 1093.69   12.78
  -1   0   0  237.72    6.28
  -1   0  -1   84.24    6.52
   1   0   2 1527.90   20.04
  -1   0  -2 1633.43   20.73
   1   0   3   75.16    7.37
  -1   0  -3   93.28    7.17
   1   0   4   27.31    5.57
  -1   0  -4   39.01    5.47
   1   0   5   49.43    6.46
  -1   0  -5   54.55    6.53
   1   0   6   28.31    6.58
  -1   0  -6   12.16   11.27
  -1   0  -7   84.88    8.09
  -1   0  -8  151.06   11.93
  -1   0  -9  122.37   10.90
  -1   0 -10  -27.06   17.69
  -1   0 -11   52.06    9.84
  -1   0 -12  -39.41   20.94
  -1  -1  12   25.26   18.49
  -1  -1  11   31.97    8.80
  -1  -1  10   -0.74   14.95
  -1  -1   9  156.81   12.19
  -1  -1   8  105.85    8.49
  -1  -1   7  186.11   14.75
   1   1  -6  143.70   14.24
  -1  -1   6  210.91   14.00
   1   1  -5  174.38   13.41
  -1  -1   5  222.39   13.18
   1   1  -4  142.94   11.00
  -1  -1   4  167.94   10.77
   1   1  -3   21.21    5.01
  -1  -1   3    1.37    8.27
   1   1  -2  346.24   10.79
  -1  -1   2  428.84   11.18
  -1  -1   1    3.53    5.61
  -1  -1   0  324.36    9.41
   1   1   1  625.29   13.68
  -1  -1  -1  766.03   14.67
   1   1   2  370.19   12.98
  -1  -1  -2  395.10   13.74
   1   1   3  447.60   16.08
  -1  -1  -3  568.45   16.95
   1   1   4   31.01    6.19
  -1  -1  -4   56.67    6.16
   1   1   5  660.74   23.26
  -1  -1  -5  925.55   25.50
  -1  -1  -6  104.50   10.27
  -1  -1  -7   43.29    7.66
  -1  -1  -8    8.18   13.86
  -1  -1  -9   -6.23   15.37
  -1  -1 -10   13.14   18.23
  -1  -1 -11  -18.85   17.14
  -1  -2  13    1.56   16.58
  -1  -2  12   46.10    9.38
  -1  -2  11    8.10   12.36
  -1  -2  10    2.89   12.34
  -1  -2   9   11.34   13.54
  -1  -2   8   17.95    6.64
  -1  -2   7    7.28   11.63
   1   2  -6   16.38    6.23
  -1  -2   6   21.44    5.70
   1   2  -5  392.42   15.40
  -1  -2   5  486.44   16.82
   1   2  -4   11.12    4.84
  -1  -2   4   12.88    4.56
   1   2  -3  477.20   14.26
  -1  -2   3  619.19   15.18
   1   2  -2   34.76    5.01
  -1  -2   2   43.69    4.76
   1   2  -1   69.39    5.27
  -1  -2   1   64.29    6.18
   1   2   0   19.89    5.32
  -1  -2   0   35.38    4.95
   1   2   1   56.33    5.70
  -1  -2  -1   67.66    5.41
   1   2   2  330.86   14.13
  -1  -2  -2  388.17   14.44
   1   2   3  -17.42    9.93
  -1  -2  -3  -10.37    9.99
   1   2   4   50.55    6.72
  -1  -2  -4   56.02    7.08
  -1  -2  -5  131.28   11.07
  -1  -2  -6   80.14    8.69
  -1  -2  -7   61.15    9.27
  -1  -2  -8   34.82    9.24
  -1  -2  -9    3.78   11.79
  -1  -2 -10   15.33   10.66
  -1  -2 -11   31.05   10.10
  -1  -3  13    7.12   17.39
  -1  -3  12    0.00   15.69
  -1  -3  11   43.15    8.99
  -1  -3  10   -7.10   14.39
  -1  -3   9   51.26    8.51
  -1  -3   8   22.11    6.86
  -1  -3   7   40.11    6.95
   1   3  -6  116.12    9.27
  -1  -3   6  162.41   13.08
   1   3  -5   31.43    5.86
  -1  -3   5   33.47    5.34
   1   3  -4   18.67    5.39
  -1  -3   4    5.58    8.74
   1   3  -3   90.30    7.41
  -1  -3   3   97.88    6.97
   1   3  -2   21.99    5.57
  -1  -3   2   24.50    5.17
   1   3  -1  107.36    7.77
  -1  -3   1  110.71   10.29
   1   3   0   76.25    7.21
  -1  -3   0   81.27    7.22
   1   3   1  293.24   14.61
  -1  -3  -1  337.91   14.63
   1   3   2  -12.17    9.23
  -1  -3  -2    4.84    9.06
   1   3   3  191.42   15.02
  -1  -3  -3  215.04   15.00
  -1  -3  -4   -7.70   11.56
  -1  -3  -5  198.04   13.34
  -1  -3  -6 -169.15   24.07
  -1  -3  -7  -45.34   21.90
  -1  -3  -8   12.32   16.87
  -1  -3  -9   -1.02   16.13
  -1  -3 -10    1.43   17.17
  -1  -4  13    9.98   15.51
  -1  -4  12   29.23    9.23
  -1  -4  11   13.35    8.12
  -1  -4  10    6.24   14.44
  -1  -4   9   17.45   13.34
  -1  -4   8   -5.50   12.45
  -1  -4   7   28.30    6.65
   1   4  -6   -4.83   10.58
  -1  -4   6    1.08    9.64
   1   4  -5  141.45   12.79
  -1  -4   5  139.72    9.06
   1   4  -4    7.71    5.27
  -1  -4   4    3.71    8.67
   1   4  -3  325.14   15.26
  -1  -4   3  328.30   15.46
   1   4  -2   -4.07    9.73
  -1  -4   2   -2.30    8.40
   1   4  -1  289.62   15.10
  -1  -4   1  344.99   15.62
   1   4   0  140.75   12.64
  -1  -4   0  149.16   12.55
   1   4   1   10.30   11.04
  -1  -4  -1   28.14    6.05
   1   4   2   58.40    7.49
  -1  -4  -2   70.99    6.92
  -1  -4  -3   -9.67   11.82
  -1  -4  -4    0.98   11.84
  -1  -4  -5    4.31   12.79
  -1  -4  -6   56.89    9.88
  -1  -4  -7   46.40    9.77
  -1  -4  -8   18.55   17.42
  -1  -4  -9   12.69   14.33
  -1  -5  13   23.52   17.15
  -1  -5  12  -13.57   18.49
  -1  -5  11   55.76    9.92
  -1  -5  10   12.60    8.04
  -1  -5   9   62.62    8.86
  -1  -5   8   -3.17   11.90
  -1  -5   7   23.50    6.54
  -1  -5   6   63.15    7.05
  -1  -5   5   10.54    9.93
   1   5  -4   66.89    7.23
  -1  -5   4  100.90    8.55
   1   5  -3    9.12   10.79
  -1  -5   3   13.05    9.33
   1   5  -2   25.08    6.75
  -1  -5   2   34.88    6.44
   1   5  -1  203.40   14.47
  -1  -5   1  214.37   15.38
   1   5   0   63.12    7.43
  -1  -5   0   61.69    7.46
  -1  -5  -1  218.10   17.16
  -1  -5  -2   15.73   12.45
  -1  -5  -3  275.35   19.42
  -1  -5  -4    0.88   14.08
  -1  -5  -5   74.34    9.65
  -1  -5  -6   16.20    9.01
  -1  -5  -7   -5.05   17.37
  -1  -5  -8    7.00   16.78
  -1  -6  12   20.64   16.34
  -1  -6  11   -2.37   15.07
  -1  -6  10   -1.95   15.52
  -1  -6   9   -8.60   14.78
  -1  -6   8   32.23    7.67
  -1  -6   7    9.10   11.82
  -1  -6   6  -13.74   11.30
  -1  -6   5  132.05   11.26
  -1  -6   4   29.24    7.70
  -1  -6   3  133.63   10.81
  -1  -6   2   35.76    7.02
  -1  -6   1  131.40   10.90
  -1  -6   0   44.92    7.38
  -1  -6  -1    6.44   12.97
  -1  -6  -2  -27.66   13.89
  -1  -6  -3   -4.44   14.67
  -1  -6  -4   54.58    9.75
  -1  -6  -5   21.35   16.57
  -1  -6  -6   18.97   12.84
  -1  -6  -7   -4.85   12.23
  -1  -7  12  -11.37   17.10
  -1  -7  11   24.52   10.03
  -1  -7  10   12.82    8.46
  -1  -7   9    1.91   13.91
  -1  -7   8   19.21   13.43
  -1  -7   7   12.62    7.57
  -1  -7   6   17.41   12.40
  -1  -7   5    1.69   13.78
  -1  -7   4  -11.25   14.38
  -1  -7   3   12.49   13.16
  -1  -7   2    4.30   12.26
  -1  -7   1  174.03   12.77
  -1  -7   0   41.44    8.29
  -1  -7  -1   94.20    9.96
  -1  -7  -2   21.64   15.98
  -1  -7  -3   11.04   15.40
  -1  -7  -4  -18.09   16.58
  -1  -7  -5   11.68   17.49
  -1  -7  -6   -8.77   19.88
  -1  -8  11   12.27   15.38
  -1  -8  10   -9.10   15.67
  -1  -8   9  -12.23   14.54
  -1  -8   8    2.41   15.35
  -1  -8   7   19.13    8.24
  -1  -8   6    3.12   12.91
  -1  -8   5   38.90    8.27
  -1  -8   4   12.64   13.50
  -1  -8   3   54.09    8.64
  -1  -8   2   12.13    7.87
  -1  -8   1   24.00    8.43
  -1  -8   0  -17.15   15.27
  -1  -8  -1   20.51   14.39
  -1  -8  -2   15.89   16.17
  -1  -8  -3   18.28   17.31
  -1  -8  -4   12.64   11.80
  -1  -8  -5    2.99   18.10
  -1  -9  10   -5.45   16.02
  -1  -9   9    8.18   16.45
  -1  -9   8    7.65   16.52
  -1  -9   7   28.10    8.48
  -1  -9   6   -3.45   15.80
  -1  -9   5  -14.64   15.70
  -1  -9   4   11.44   14.58
  -1  -9   3   -7.76   15.06
  -1  -9   2    7.39   11.74
  -1  -9   1   24.67    9.48
  -1  -9   0   38.86    9.52
  -1  -9  -1   39.21   10.67
  -1  -9  -2  -24.10   18.42
  -1  -9  -3  -31.32   19.23
  -1 -10   8   -6.80   18.04
  -1 -10   7   20.14   16.61
  -1 -10   6  -14.27   17.61
  -1 -10   5    9.40   17.21
  -1 -10   4   11.43   17.03
  -1 -10   3    0.28   17.16
  -1 -10   2   18.67   15.67
  -1 -10   1    2.76   16.65
  -1 -10   0  -11.32   18.66
  -2  10   1    9.06   18.19
  -2  10   0   -0.15   18.57
  -2  10  -1   24.23   16.72
  -2  10  -2    0.24   16.20
  -2  10  -3   21.85   18.45
  -2  10  -4   -6.62   16.86
  -2  10  -5   25.69   17.84
  -2  10  -6   22.45   18.12
  -2  10  -7  -15.20   19.01
  -2  10  -8   18.89   17.72
  -2   9   3   17.32   18.88
  -2   9   2    5.73   16.66
  -2   9   1   -2.48   16.76
  -2   9   0   13.78    8.71
  -2   9  -1   42.89    9.32
  -2   9  -2   42.29    8.80
  -2   9  -3   -2.12   15.47
  -2   9  -4   18.20    9.12
  -2   9  -5   13.75   15.72
  -2   9  -6    6.85   15.34
  -2   9  -7   36.52   10.14
  -2   9  -8  -13.22   18.48
  -2   9  -9   -4.11   20.26
  -2   9 -10    2.89   15.98
  -2   8   5    6.91   19.35
  -2   8   4   30.79   10.57
  -2   8   3   34.57   10.55
  -2   8   2   -9.26   18.90
  -2   8   1   27.11    9.32
  -2   8   0  -10.14   15.37
  -2   8  -1   -1.12   14.44
  -2   8  -2   -6.72   14.08
  -2   8  -3   25.78    7.95
  -2   8  -4  -14.73   14.01
  -2   8  -5   17.89    8.58
  -2   8  -6    4.22   14.52
  -2   8  -7   -5.59   14.74
  -2   8  -8   -1.15   19.61
  -2   8  -9   31.91    9.97
  -2   8 -10    2.74   15.87
  -2   8 -11   21.77   17.13
  -2   7   7    3.00   16.18
  -2   7   6   -2.58   19.21
  -2   7   5   45.53   10.39
  -2   7   4  -13.79   14.75
  -2   7   3   -8.44   17.40
  -2   7   2   26.77    8.00
  -2   7   1    8.70    9.60
  -2   7   0  234.74   21.04
  -2   7  -1   66.95    8.62
  -2   7  -2  -18.48   12.78
  -2   7  -3  -31.71   14.27
  -2   7  -4   11.82   12.35
  -2   7  -5   99.74    8.89
  -2   7  -6   34.10    7.47
  -2   7  -7   28.50    8.03
  -2   7  -8    4.09   15.56
  -2   7  -9   20.15   15.64
  -2   7 -10   -9.76   16.20
  -2   7 -11    9.58   17.48
  -2   6   8   22.21   17.48
  -2   6   7    7.80   17.18
  -2   6   6   -3.72   15.95
  -2   6   5   48.20    9.41
  -2   6   4   97.12    9.81
  -2   6   3    9.92   14.15
  -2   6   2   64.15    8.46
  -2   6   1   69.84    7.92
  -2   6   0   90.66    8.50
  -2   6  -1  300.26   18.98
  -2   6  -2   20.45    7.28
  -2   6  -3   53.27    7.62
  -2   6  -4   18.22   12.50
  -2   6  -5  -18.27   11.85
  -2   6  -6   -2.60   12.26
  -2   6  -7  -15.51   12.74
  -2   6  -8   40.97    8.59
  -2   6  -9    7.35   11.32
  -2   6 -10   16.48   12.46
  -2   6 -11   -0.16   18.97
  -2   6 -12   29.14   10.46
  -2   5   9    6.12   16.74
  -2   5   8   -8.05   17.12
  -2   5   7   52.67    9.83
  -2   5   6   -5.07   14.43
  -2   5   5  -13.68   14.49
  -2   5   4   49.23    8.36
  -2   5   3   72.67    8.28
  -2   5   2   49.50    7.62
  -2   5   1   37.80    6.36
   2  -5   0  234.07   16.76
  -2   5   0  254.49   16.71
   2  -5   1   15.12   11.31
  -2   5  -1   10.51   10.10
   2  -5   2   85.75    7.78
  -2   5  -2  101.46    8.52
   2  -5   3   79.85    7.33
  -2   5  -3   61.46    7.07
   2  -5   4   97.18    9.50
  -2   5  -4   90.73    9.05
  -2   5  -5  266.83   17.15
  -2   5  -6   36.02    7.15
  -2   5  -7  502.69   23.24
  -2   5  -8   35.62    8.10
  -2   5  -9  -10.21   14.50
  -2   5 -10    9.16   15.24
  -2   5 -11   15.16   18.84
  -2   5 -12   23.12   10.34
  -2   4  10   49.17   10.81
  -2   4   9  -24.33   18.33
  -2   4   8    3.73   16.70
  -2   4   7  -11.30   14.56
  -2   4   6    9.81   14.38
  -2   4   5  121.09   10.73
  -2   4   4  259.07   17.39
  -2   4   3  243.42   17.23
   2  -4  -2  176.11   15.43
  -2   4   2  148.61   13.93
   2  -4  -1  563.48   19.74
  -2   4   1  574.86   19.80
   2  -4   0   25.54    6.11
  -2   4   0    6.37    9.71
   2  -4   1  364.95   16.66
  -2   4  -1  383.48   15.58
   2  -4   2  107.27    8.61
  -2   4  -2  100.80    7.76
   2  -4   3  266.59   15.12
  -2   4  -3  258.02   13.83
   2  -4   4   13.89    9.39
  -2   4  -4    0.29    9.21
   2  -4   5   54.72    7.02
  -2   4  -5   41.20    6.84
  -2   4  -6  469.29   20.84
  -2   4  -7  378.66   20.01
  -2   4  -8   16.17    7.62
  -2   4  -9  -16.06   14.29
  -2   4 -10   36.45    9.35
  -2   4 -11   17.63    9.68
  -2   4 -12   21.02    9.85
  -2   3  10   18.08   12.58
  -2   3   9   42.85   10.65
  -2   3   8   11.52    9.99
  -2   3   7   62.21    8.89
  -2   3   6   12.99    9.06
  -2   3   5  206.86   16.41
   2  -3  -4   26.93    7.43
  -2   3   4   30.67    6.42
   2  -3  -3   32.80    6.37
  -2   3   3   26.28    5.70
   2  -3  -2  590.60   19.07
  -2   3   2  578.80   18.26
   2  -3  -1  219.78   13.06
  -2   3   1  174.44   12.30
   2  -3   0  652.26   18.12
  -2   3   0  618.87   16.96
   2  -3   1   12.97    5.17
  -2   3  -1    6.38    8.55
   2  -3   2 2273.50   30.02
  -2   3  -2 2119.80   28.86
   2  -3   3   -3.11    9.56
  -2   3  -3   -1.56    8.73
   2  -3   4   67.59    6.17
  -2   3  -4   71.11    6.98
   2  -3   5   33.61    6.01
  -2   3  -5   24.75    5.60
  -2   3  -6   41.74    6.15
  -2   3  -7  268.08   18.92
  -2   3  -8  -12.92   12.79
  -2   3  -9   -1.76   14.48
  -2   3 -10   15.09   15.24
  -2   3 -11   -8.75   17.22
  -2   3 -12  -17.51   18.61
  -2   2  11  -11.31   17.88
  -2   2  10  -13.53   17.44
  -2   2   9   -7.78   15.37
  -2   2   8   -8.63   14.19
  -2   2   7   15.11   12.89
  -2   2   6  819.64   27.74
   2  -2  -5  -16.23   12.90
  -2   2   5    3.61   10.41
   2  -2  -4  139.24   13.53
  -2   2   4  148.50   12.18
   2  -2  -3    8.79    7.08
  -2   2   3   10.81    8.97
   2  -2  -2   11.63    9.17
  -2   2   2    8.00    8.48
   2  -2  -1  900.25   19.30
  -2   2   1  885.46   18.38
   2  -2   0  113.36    9.88
  -2   2   0   87.32    6.70
   2  -2   1  -15.15    8.45
  -2   2  -1    7.96    7.75
   2  -2   2  340.30   13.24
  -2   2  -2  333.80   12.51
   2  -2   3   26.57    5.16
  -2   2  -3   29.45    4.80
   2  -2   4    9.54    9.32
  -2   2  -4    7.04    9.18
   2  -2   5   90.23    8.68
  -2   2  -5   70.72    6.39
   2  -2   6   13.16   11.44
  -2   2  -6    5.95   10.47
  -2   2  -7   49.90    7.66
  -2   2  -8   64.11    8.42
  -2   2  -9   -3.67   12.28
  -2   2 -10   -2.28   15.08
  -2   2 -11   35.66    9.87
  -2   2 -12    3.99   18.36
  -2   1  12  -24.60   19.26
  -2   1  11   40.77   10.54
  -2   1  10   77.65   10.70
  -2   1   9   39.81    9.27
  -2   1   8   17.68   14.08
  -2   1   7  137.13   10.98
  -2   1   6  223.14   16.34
   2  -1  -5  157.38   14.63
  -2   1   5  179.94   12.60
   2  -1  -4  435.65   16.55
  -2   1   4  382.77   15.93
   2  -1  -3   81.44    7.48
  -2   1   3   87.41    6.92
   2  -1  -2    5.01    8.45
  -2   1   2    0.54    7.49
   2  -1  -1    6.17    8.71
  -2   1   1    5.95    7.87
   2  -1   0 1319.41   19.23
  -2   1   0 1349.53   19.04
   2  -1   1  -11.73    8.10
  -2   1  -1    4.36    7.09
   2  -1   2  560.34   15.04
  -2   1  -2  492.47   13.89
   2  -1   3   21.28    5.42
  -2   1  -3    7.85    8.54
   2  -1   4  163.36   12.87
  -2   1  -4  197.30   12.60
   2  -1   5  796.87   23.01
  -2   1  -5  829.58   23.80
   2  -1   6  129.83   10.15
  -2   1  -6  133.70   10.16
  -2   1  -7  131.59   11.07
  -2   1  -8   30.44    7.70
  -2   1  -9   53.82    9.26
  -2   1 -10    8.54   15.11
  -2   1 -11    0.00   18.67
  -2   1 -12   -2.57   17.54
  -2   0  12    1.37   15.80
  -2   0  11   21.25    9.41
  -2   0  10    3.20   15.13
  -2   0   9   14.72    7.71
  -2   0   8   -1.12   14.08
  -2   0   7   10.37   11.56
   2   0  -6  178.19   15.86
  -2   0   6  220.29   15.76
   2   0  -5   92.28    8.77
  -2   0   5   99.27    7.88
   2   0  -4  284.08   14.76
  -2   0   4  311.60   13.51
   2   0  -3 1382.31   23.45
  -2   0   3 1542.20   23.91
   2   0  -2   79.49    7.11
  -2   0   2  100.80    9.14
   2   0  -1 1275.57   17.84
  -2   0   1 1310.21   18.30
   2   0   0   61.78    6.09
  -2   0   0   48.51    4.61
   2   0   1 6566.04   40.47
  -2   0  -1 5875.14   38.21
   2   0   2  139.18   10.93
  -2   0  -2  115.88   10.73
   2   0   3   81.93    7.77
  -2   0  -3   79.67    7.09
   2   0   4  203.27   14.00
  -2   0  -4  226.74   13.87
   2   0   5  652.91   22.86
  -2   0  -5  733.85   22.44
  -2   0  -6   21.74    6.77
  -2   0  -7   13.16   13.40
  -2   0  -8  181.44   13.55
  -2   0  -9   -4.86   14.66
  -2   0 -10   36.91    9.31
  -2   0 -11   13.49   18.95
  -2  -1  12   23.99   17.07
  -2  -1  11    1.16   17.36
  -2  -1  10   38.80    9.24
  -2  -1   9  103.41    8.59
  -2  -1   8    9.73    7.24
  -2  -1   7  308.68   17.19
   2   1  -6   75.32    7.09
  -2  -1   6   94.59    8.08
   2   1  -5   10.27    7.03
  -2  -1   5   17.37    5.21
   2   1  -4  709.70   18.47
  -2  -1   4  799.34   19.04
   2   1  -3  396.46   13.43
  -2  -1   3  434.79   13.56
   2   1  -2   95.09    9.46
  -2  -1   2  109.84    8.94
   2   1  -1   62.77    4.89
  -2  -1   1   50.24    4.71
   2   1   012582.07   55.79
  -2  -1   012164.05   54.78
   2   1   1  727.33   17.34
  -2  -1  -1  705.82   16.51
   2   1   2  936.41   20.20
  -2  -1  -2  941.47   19.91
   2   1   3    0.84    9.38
  -2  -1  -3   10.60    8.69
   2   1   4  147.14   13.61
  -2  -1  -4  158.56   12.72
   2   1   5  126.08   10.31
  -2  -1  -5  135.31   10.11
  -2  -1  -6   -0.86   12.27
  -2  -1  -7   75.35    8.58
  -2  -1  -8   -4.74   15.17
  -2  -1  -9   21.12    8.64
  -2  -1 -10   -3.66   16.81
  -2  -1 -11    5.54   16.85
  -2  -2  13    0.00   17.65
  -2  -2  12   46.30   10.38
  -2  -2  11   20.27    7.62
  -2  -2  10  -13.45   14.48
  -2  -2   9    1.66   12.80
  -2  -2   8  265.11   18.81
  -2  -2   7   60.21    6.85
   2   2  -6  336.18   17.49
  -2  -2   6  330.29   16.24
   2   2  -5  421.56   16.74
  -2  -2   5  415.02   16.65
   2   2  -4 1534.88   25.86
  -2  -2   4 1658.63   26.34
   2   2  -3  437.76   14.31
  -2  -2   3  459.22   14.25
   2   2  -2   75.03    7.05
  -2  -2   2   87.28    6.28
   2   2  -1   25.17    5.40
  -2  -2   1   24.79    4.80
   2   2   0   -0.15    8.75
  -2  -2   0  -14.16    8.10
   2   2   1  167.34   11.79
  -2  -2  -1  154.73   10.98
   2   2   2   -3.81    9.31
  -2  -2  -2    6.38    8.10
   2   2   3  145.09   12.87
  -2  -2  -3  138.65   12.96
   2   2   4   14.72   11.55
  -2  -2  -4    8.28    9.53
  -2  -2  -5  216.48   17.12
  -2  -2  -6   94.65    8.67
  -2  -2  -7   16.24    8.97
  -2  -2  -8    1.22   15.38
  -2  -2  -9   36.98    9.40
  -2  -2 -10    9.91   18.72
  -2  -3  13   12.78   18.03
  -2  -3  12  120.69   11.70
  -2  -3  11    4.69   17.23
  -2  -3  10   40.96    8.19
  -2  -3   9   18.25   13.13
  -2  -3   8    3.03   10.60
  -2  -3   7   31.25    6.22
   2   3  -6   43.78    6.57
  -2  -3   6   40.26    5.91
   2   3  -5   27.04    6.18
  -2  -3   5   34.10    5.38
   2   3  -4  117.77   11.37
  -2  -3   4  109.12   10.20
   2   3  -3   13.36    9.07
  -2  -3   3    8.28    7.77
   2   3  -2  170.13   11.94
  -2  -3   2  162.30   11.46
   2   3  -1  147.97   11.59
  -2  -3   1  144.18   10.80
   2   3   0  247.30   13.83
  -2  -3   0  249.59   13.53
   2   3   1   11.22   10.24
  -2  -3  -1    2.09    8.77
   2   3   2  510.86   20.15
  -2  -3  -2  479.99   18.28
   2   3   3    7.07   10.80
  -2  -3  -3    5.03    6.87
  -2  -3  -4  -15.69   11.83
  -2  -3  -5   36.79    7.54
  -2  -3  -6   13.54   13.49
  -2  -3  -7  235.82   22.33
  -2  -3  -8    6.10   17.40
  -2  -3  -9  -17.30   17.20
  -2  -3 -10    7.56   18.44
  -2  -4  13    8.69   19.09
  -2  -4  12    3.71   18.31
  -2  -4  11    9.19   14.99
  -2  -4  10   17.30   12.58
  -2  -4   9   12.82   13.94
  -2  -4   8    9.31   10.62
  -2  -4   7  -25.83   11.37
  -2  -4   6  352.88   18.17
   2   4  -5   13.96    6.01
  -2  -4   5    0.55    9.11
   2   4  -4   36.99    5.98
  -2  -4   4   28.91    5.39
   2   4  -3  105.15    9.19
  -2  -4   3  115.83   10.78
   2   4  -2   -1.31    9.85
  -2  -4   2   11.25    8.70
   2   4  -1 1129.47   26.07
  -2  -4   1 1097.48   25.50
   2   4   0   76.22    7.12
  -2  -4   0   74.49    6.34
   2   4   1   56.12    7.17
  -2  -4  -1   61.93    6.82
  -2  -4  -2   29.98    6.32
  -2  -4  -3   87.76    7.83
  -2  -4  -4   44.94    7.63
  -2  -4  -5   -0.17   15.64
  -2  -4  -6  104.29   10.23
  -2  -4  -7   17.56   17.00
  -2  -4  -8   25.20    9.91
  -2  -4  -9    7.10   13.36
  -2  -5  13   16.34   18.14
  -2  -5  12    9.56   15.71
  -2  -5  11   60.92    9.61
  -2  -5  10    4.28   14.97
  -2  -5   9   73.03    9.12
  -2  -5   8  -28.59   13.87
  -2  -5   7    1.42   10.78
  -2  -5   6  252.20   16.91
  -2  -5   5  232.24   15.91
  -2  -5   4   -1.45   10.20
   2   5  -3   15.55   10.69
  -2  -5   3    4.14    9.75
   2   5  -2  328.31   18.68
  -2  -5   2  353.14   18.03
   2   5  -1   94.95    8.02
  -2  -5   1   77.36    7.04
  -2  -5   0  302.67   17.60
  -2  -5  -1   19.25    6.51
  -2  -5  -2  386.88   21.46
  -2  -5  -3    4.46   12.71
  -2  -5  -4   10.59   16.96
  -2  -5  -5   23.24    8.64
  -2  -5  -6   10.43   15.73
  -2  -5  -7    2.57   17.03
  -2  -5  -8  -11.65   17.53
  -2  -6  12   11.12   19.06
  -2  -6  11   18.57    9.85
  -2  -6  10    5.74   14.28
  -2  -6   9   14.19   13.33
  -2  -6   8   17.50   13.83
  -2  -6   7   65.78    7.85
  -2  -6   6  739.18   28.61
  -2  -6   5  -17.40   12.17
  -2  -6   4  173.10   16.39
  -2  -6   3   16.10    6.73
  -2  -6   2  -10.60   12.07
  -2  -6   1   22.73    7.01
  -2  -6   0   15.12   11.72
  -2  -6  -1   40.79    8.10
  -2  -6  -2   37.06    8.01
  -2  -6  -3   45.05    9.12
  -2  -6  -4   31.23    9.68
  -2  -6  -5   36.62   10.06
  -2  -6  -6   -0.13   17.02
  -2  -6  -7   -6.03   16.43
  -2  -7  12    3.01   16.00
  -2  -7  11   44.93   11.07
  -2  -7  10   12.15   16.10
  -2  -7   9   44.97    8.77
  -2  -7   8    0.11   13.61
  -2  -7   7   -2.06   13.38
  -2  -7   6    3.14    7.58
  -2  -7   5   20.79    7.39
  -2  -7   4   -8.66   12.43
  -2  -7   3   37.98    7.61
  -2  -7   2   27.17    7.27
  -2  -7   1  -34.29   14.72
  -2  -7   0  131.50   12.80
  -2  -7  -1   10.09   15.39
  -2  -7  -2   17.19    8.38
  -2  -7  -3  -29.06   16.38
  -2  -7  -4  -22.41   16.88
  -2  -7  -5   16.56   18.33
  -2  -7  -6    3.12   13.12
  -2  -8  11   -3.94   18.02
  -2  -8  10    4.14   15.78
  -2  -8   9  -10.99   16.13
  -2  -8   8   64.63    9.90
  -2  -8   7    9.07    9.73
  -2  -8   6   27.05    8.11
  -2  -8   5   -2.97   12.62
  -2  -8   4   29.80    8.96
  -2  -8   3    0.76   14.00
  -2  -8   2    5.24   12.77
  -2  -8   1   17.97   13.66
  -2  -8   0   11.19   16.11
  -2  -8  -1  100.28   11.40
  -2  -8  -2   23.24   10.24
  -2  -8  -3   -9.85   19.11
  -2  -8  -4   25.83   18.49
  -2  -9  10  -24.45   18.46
  -2  -9   9   -9.63   16.45
  -2  -9   8   23.34    9.03
  -2  -9   7    2.57   15.69
  -2  -9   6  -10.90   14.41
  -2  -9   5  -23.72   16.27
  -2  -9   4    9.38   14.75
  -2  -9   3    9.27   13.24
  -2  -9   2   11.71   10.88
  -2  -9   1  -10.96   17.23
  -2  -9   0   52.62   10.02
  -2  -9  -1   19.60   16.10
  -2  -9  -2   15.92   18.72
  -2 -10   8   17.33   17.70
  -2 -10   7   17.75   13.58
  -2 -10   6    9.45   16.60
  -2 -10   5    6.72   15.74
  -2 -10   4   -5.24   16.84
  -2 -10   3    0.00   16.84
  -2 -10   2    6.78   15.40
  -2 -10   1  -26.77   19.68
  -3  10   1  -40.81   20.45
  -3  10   0   -4.59   18.76
  -3  10  -1   -9.55   17.94
  -3  10  -2   20.53   10.11
  -3  10  -3    8.07   15.88
  -3  10  -4   -3.83   18.55
  -3  10  -5  -19.82   17.38
  -3  10  -6  -16.36   18.13
  -3  10  -7   -1.12   18.55
  -3   9   3   15.01   10.15
  -3   9   2    0.12   17.10
  -3   9   1    9.30   16.33
  -3   9   0   13.86   15.26
  -3   9  -1    2.22   16.69
  -3   9  -2    3.47   15.88
  -3   9  -3   12.78   17.96
  -3   9  -4    8.17   16.45
  -3   9  -5   -1.27   13.75
  -3   9  -6   23.13    9.54
  -3   9  -7    1.28   15.67
  -3   9  -8   23.05   17.10
  -3   9  -9    1.65   16.63
  -3   8   5   29.56   20.02
  -3   8   4  -22.83   19.48
  -3   8   3    9.13   16.98
  -3   8   2   23.01   19.03
  -3   8   1  -10.53   14.72
  -3   8   0   87.37   10.21
  -3   8  -1    7.34   14.28
  -3   8  -2    1.70   15.58
  -3   8  -3  -30.56   16.22
  -3   8  -4   -2.81   13.45
  -3   8  -5   13.53   15.17
  -3   8  -6   18.08   14.33
  -3   8  -7    9.84   10.74
  -3   8  -8    5.03   15.17
  -3   8  -9    7.47   16.71
  -3   8 -10   23.66    8.87
  -3   7   6  -12.55   16.90
  -3   7   5   20.65    9.08
  -3   7   4   -4.75   15.99
  -3   7   3   20.99   16.49
  -3   7   2  -14.66   15.19
  -3   7   1   -4.75   13.29
  -3   7   0   14.49   14.29
  -3   7  -1   49.61    8.41
  -3   7  -2   59.16    8.70
  -3   7  -3   47.94    8.21
  -3   7  -4   11.33   13.70
  -3   7  -5   18.77    7.11
  -3   7  -6    0.95   15.62
  -3   7  -7  -14.96   14.03
  -3   7  -8    5.10   15.31
  -3   7  -9   -3.66   16.40
  -3   7 -10  -36.75   19.74
  -3   7 -11   -5.51   15.77
  -3   6   8    9.06   17.12
  -3   6   7  -11.74   18.38
  -3   6   6  -42.88   19.19
  -3   6   5   18.81   14.91
  -3   6   4   55.79   10.08
  -3   6   3   16.25   12.41
  -3   6   2  101.06    8.82
  -3   6   1   12.98   11.80
  -3   6   0  227.37   17.62
  -3   6  -1    1.60   11.60
  -3   6  -2  118.14   10.35
  -3   6  -3   -1.35   13.09
  -3   6  -4  -14.39   12.15
  -3   6  -5   14.56   11.47
  -3   6  -6   10.91   13.65
  -3   6  -7    3.74   12.88
  -3   6  -8    0.24   13.97
  -3   6  -9   13.59   14.66
  -3   6 -10    0.16   17.90
  -3   6 -11   -2.73   16.61
  -3   5   9   12.77   11.22
  -3   5   8   11.93   17.22
  -3   5   7   23.85   16.86
  -3   5   6  -14.92   16.24
  -3   5   5   32.96    8.08
  -3   5   4   38.07    7.66
  -3   5   3   36.78    7.50
  -3   5   2   -6.91   11.98
  -3   5   1   19.90    6.31
  -3   5   0   34.88    6.16
  -3   5  -1  321.20   17.80
  -3   5  -2  101.95    9.43
  -3   5  -3  115.91    9.56
  -3   5  -4   32.57    6.69
  -3   5  -5    8.82   10.80
  -3   5  -6   53.07    7.80
  -3   5  -7   20.91    7.37
  -3   5  -8   14.12   13.34
  -3   5  -9  -11.56   15.06
  -3   5 -10  -13.06   15.82
  -3   5 -11   -0.30   17.98
  -3   5 -12  -20.20   19.72
  -3   4  10    1.51   17.39
  -3   4   9    7.95   17.10
  -3   4   8    8.56   15.32
  -3   4   7   25.32    9.06
  -3   4   6   37.68    7.88
  -3   4   5   85.12    7.99
  -3   4   4  181.57   16.61
  -3   4   3   24.34    6.56
   3  -4  -2  397.17   19.76
  -3   4   2  387.97   18.67
   3  -4  -1    9.63   10.83
  -3   4   1   13.01    9.79
   3  -4   0  187.18   14.97
  -3   4   0  206.40   13.70
   3  -4   1   -2.21   10.91
  -3   4  -1   10.28    8.93
   3  -4   2   67.75    6.85
  -3   4  -2   60.62    6.17
   3  -4   3   -1.81   10.33
  -3   4  -3    7.10    4.64
   3  -4   4   35.93    6.86
  -3   4  -4   50.91    5.79
  -3   4  -5   77.07    7.32
  -3   4  -6   21.25    6.40
  -3   4  -7   46.76    7.80
  -3   4  -8   39.90    7.94
  -3   4  -9    2.12   13.35
  -3   4 -10   54.83    9.30
  -3   4 -11  -10.30   16.39
  -3   4 -12    2.97   19.52
  -3   3  10   79.10   12.72
  -3   3   9    3.61   16.90
  -3   3   8   59.41    9.49
  -3   3   7   14.83    8.14
  -3   3   6   39.44    7.86
  -3   3   5   34.62    6.95
  -3   3   4   -4.97   10.98
   3  -3  -3   11.52   11.25
  -3   3   3   13.23    5.51
   3  -3  -2   -4.04   10.12
  -3   3   2    9.14    9.06
   3  -3  -1  177.59   13.66
  -3   3   1  180.20   12.80
   3  -3   0   83.09    7.78
  -3   3   0   77.94    6.99
   3  -3   1  321.36   14.88
  -3   3  -1  301.94   14.10
   3  -3   2  362.38   15.86
  -3   3  -2  399.75   15.12
   3  -3   3   29.91    5.96
  -3   3  -3   45.82    5.32
   3  -3   4  164.69   13.33
  -3   3  -4  175.17   12.38
   3  -3   5    4.82    6.58
  -3   3  -5    8.55    9.42
  -3   3  -6   12.03   11.83
  -3   3  -7    9.23   12.08
  -3   3  -8  -15.35   13.73
  -3   3  -9   -2.35   16.14
  -3   3 -10   11.51   11.09
  -3   3 -11  -25.60   20.10
  -3   3 -12   -9.72   19.18
  -3   2  11  -21.64   18.42
  -3   2  10   16.34    9.48
  -3   2   9    2.17   13.76
  -3   2   8   17.04    7.82
  -3   2   7   90.26    9.26
  -3   2   6  157.94   15.79
  -3   2   5   80.11    7.25
   3  -2  -4  327.73   17.98
  -3   2   4  331.03   17.01
   3  -2  -3    4.54    9.99
  -3   2   3    7.96    8.57
   3  -2  -2  119.17    8.26
  -3   2   2  117.39    7.57
   3  -2  -1   -8.08    8.93
  -3   2   1   -9.72    7.74
   3  -2   0  139.56   11.73
  -3   2   0  175.80   11.04
   3  -2   1   -0.31    9.12
  -3   2  -1    8.77    4.41
   3  -2   2   50.32    5.37
  -3   2  -2   52.77    4.92
   3  -2   3   36.20    5.80
  -3   2  -3   42.04    5.04
   3  -2   4   -2.99   10.64
  -3   2  -4    9.50    8.33
   3  -2   5  122.22    9.69
  -3   2  -5  113.82    9.02
  -3   2  -6   -0.67   10.59
  -3   2  -7   99.41    8.57
  -3   2  -8   12.36   13.17
  -3   2  -9    9.82    9.95
  -3   2 -10   22.97   15.65
  -3   2 -11    8.95   15.59
  -3   2 -12   19.92   10.02
  -3   1  12  -10.30   18.32
  -3   1  11  -25.44   18.59
  -3   1  10   68.21    9.56
  -3   1   9   58.52    9.10
  -3   1   8   66.85    8.63
  -3   1   7   12.73   12.88
  -3   1   6   75.84    7.44
   3  -1  -5  -10.50   11.50
  -3   1   5   -6.43   10.41
   3  -1  -4   67.27    6.61
  -3   1   4   70.17    6.09
   3  -1  -3   12.39    5.34
  -3   1   3    4.73    8.07
   3  -1  -2   53.52    5.84
  -3   1   2   68.73    5.97
   3  -1  -1  304.11   13.79
  -3   1   1  282.87   12.89
   3  -1   0   55.05    5.58
  -3   1   0   59.40    5.12
   3  -1   1   83.62    7.27
  -3   1  -1   98.96    9.46
   3  -1   2  169.97   11.60
  -3   1  -2  159.29    9.99
   3  -1   3   50.02    6.25
  -3   1  -3   58.94    5.44
   3  -1   4  187.27   14.26
  -3   1  -4  175.38   13.30
   3  -1   5   -8.96   11.37
  -3   1  -5    4.20   10.20
  -3   1  -6   50.65    7.26
  -3   1  -7    7.03   11.74
  -3   1  -8   -7.52   13.66
  -3   1  -9   19.66   13.38
  -3   1 -10   16.25   15.53
  -3   1 -11   -3.85   16.66
  -3   0  12    2.66   16.47
  -3   0  11   12.46   17.22
  -3   0  10  -19.82   14.68
  -3   0   9  -13.48   13.68
  -3   0   8   12.73    6.32
  -3   0   7   60.23    7.46
  -3   0   6  115.80    8.83
   3   0  -5  345.77   17.54
  -3   0   5  383.86   17.67
   3   0  -4  606.92   19.74
  -3   0   4  668.32   19.97
   3   0  -3   87.26    7.99
  -3   0   3   85.88    7.12
   3   0  -2   66.50    5.70
  -3   0   2   62.49    5.23
   3   0  -1   30.50    4.98
  -3   0   1   31.85    4.69
   3   0   0  129.13   10.77
  -3   0   0  102.77    9.62
   3   0   1  208.25   12.19
  -3   0  -1  182.03   10.98
   3   0   2   10.43    9.93
  -3   0  -2   -2.66    8.53
   3   0   3    8.10    9.52
  -3   0  -3  -10.51    9.33
   3   0   4    8.52   11.09
  -3   0  -4    2.08    9.22
  -3   0  -5  258.90   15.08
  -3   0  -6    7.80   13.52
  -3   0  -7  123.24   11.26
  -3   0  -8   10.69   15.21
  -3   0  -9   16.36   15.60
  -3   0 -10   17.54   17.82
  -3   0 -11   16.59   16.35
  -3  -1  12   39.05    9.95
  -3  -1  11  -15.59   15.66
  -3  -1  10  103.29    9.80
  -3  -1   9   24.33    7.51
  -3  -1   8  170.32   11.78
  -3  -1   7   56.97    7.43
   3   1  -6   44.80    6.80
  -3  -1   6   39.84    6.06
   3   1  -5   43.97    6.35
  -3  -1   5   67.10    6.00
   3   1  -4    1.48    9.44
  -3  -1   4   -2.83    8.13
   3   1  -3  114.67   10.54
  -3  -1   3  100.49    9.86
   3   1  -2  222.39   12.07
  -3  -1   2  255.46   11.40
   3   1  -1  467.36   15.23
  -3  -1   1  412.65   14.47
   3   1   0   78.42    7.42
  -3  -1   0   74.98    6.55
   3   1   1  122.31   11.25
  -3  -1  -1   97.43    7.24
   3   1   2  941.39   22.88
  -3  -1  -2  834.66   20.90
   3   1   3   29.87    6.16
  -3  -1  -3   23.25    5.51
   3   1   4  239.80   16.11
  -3  -1  -4  228.03   15.20
  -3  -1  -5    9.12   10.48
  -3  -1  -6   14.54   12.67
  -3  -1  -7  -13.10   15.15
  -3  -1  -8    9.78   16.00
  -3  -1  -9   20.28   16.22
  -3  -1 -10   26.49   19.27
  -3  -1 -11   -7.43   21.90
  -3  -2  12  -12.81   17.66
  -3  -2  11   -7.04   16.25
  -3  -2  10   16.85   14.85
  -3  -2   9   51.95    8.12
  -3  -2   8   22.76    7.30
  -3  -2   7  135.16   13.49
   3   2  -6  148.60   14.78
  -3  -2   6  184.83   14.03
   3   2  -5  155.95   13.11
  -3  -2   5  152.42   12.00
   3   2  -4  314.16   15.41
  -3  -2   4  364.77   14.70
   3   2  -3    5.93    6.00
  -3  -2   3   -2.39    7.29
   3   2  -2   12.83    9.01
  -3  -2   2    8.62    8.02
   3   2  -1   48.94    5.71
  -3  -2   1   43.76    5.20
   3   2   0   12.14   10.11
  -3  -2   0   11.41    8.39
   3   2   1   33.72    6.00
  -3  -2  -1   40.69    5.33
   3   2   2   45.94    6.40
  -3  -2  -2   39.25    5.64
   3   2   3   72.33    7.61
  -3  -2  -3   63.98    6.69
  -3  -2  -4   15.52   10.48
  -3  -2  -5  360.94   20.45
  -3  -2  -6   43.61    8.32
  -3  -2  -7   56.55    9.24
  -3  -2  -8    7.80   16.04
  -3  -2  -9   10.49   16.58
  -3  -2 -10   18.70   17.81
  -3  -3  13   -7.14   15.71
  -3  -3  12   -5.47   17.76
  -3  -3  11   -6.98   14.55
  -3  -3  10   61.74    8.71
  -3  -3   9   19.85    7.66
  -3  -3   8   30.03    6.33
  -3  -3   7    8.82    9.77
  -3  -3   6    2.61    9.54
   3   3  -5   19.67    6.52
  -3  -3   5   36.26    5.43
   3   3  -4   -0.63   10.34
  -3  -3   4    5.79    8.34
   3   3  -3  187.26   12.95
  -3  -3   3  199.17   12.87
   3   3  -2   13.20   10.24
  -3  -3   2   22.32    5.13
   3   3  -1  124.37   12.01
  -3  -3   1  137.13   11.26
   3   3   0   59.72    6.52
  -3  -3   0   42.80    5.77
   3   3   1   61.87    6.78
  -3  -3  -1   49.31    5.95
   3   3   2  278.36   17.06
  -3  -3  -2  221.10   14.80
  -3  -3  -3    8.77   10.48
  -3  -3  -4   27.87    6.81
  -3  -3  -5   21.96    7.41
  -3  -3  -6    7.89   13.07
  -3  -3  -7   -4.50   15.19
  -3  -3  -8   17.49   15.95
  -3  -3  -9  -13.95   16.26
  -3  -4  12    6.79   14.72
  -3  -4  11   -1.31   15.03
  -3  -4  10    2.10   13.20
  -3  -4   9   13.73    7.31
  -3  -4   8   16.58   11.54
  -3  -4   7   11.80   12.99
  -3  -4   6  116.83    9.59
  -3  -4   5   14.66   10.10
   3   4  -4  106.62    9.18
  -3  -4   4   88.70    8.13
   3   4  -3   14.77   10.89
  -3  -4   3   12.01   10.14
   3   4  -2   27.27    6.42
  -3  -4   2   18.86    5.47
   3   4  -1   12.99    6.31
  -3  -4   1   12.85    9.59
   3   4   0  -18.48   11.66
  -3  -4   0   -8.40    9.60
  -3  -4  -1   12.61    9.76
  -3  -4  -2    6.32    6.21
  -3  -4  -3   25.74    6.99
  -3  -4  -4  -18.12   13.45
  -3  -4  -5   58.29    9.77
  -3  -4  -6   13.38    8.03
  -3  -4  -7   21.94   18.55
  -3  -4  -8   30.92    9.76
  -3  -5  12  -32.85   17.74
  -3  -5  11  -12.19   16.05
  -3  -5  10   11.87   17.15
  -3  -5   9    1.76   13.35
  -3  -5   8   -4.66   13.22
  -3  -5   7   -7.17   11.62
  -3  -5   6  -16.20   11.87
  -3  -5   5   -5.76   10.46
  -3  -5   4  -10.26   10.26
  -3  -5   3   32.68    6.63
  -3  -5   2   -9.89   10.50
  -3  -5   1  121.56   10.88
  -3  -5   0  114.44   10.83
  -3  -5  -1   26.33    7.74
  -3  -5  -2   77.00    8.47
  -3  -5  -3  -18.55   14.21
  -3  -5  -4   38.39    8.13
  -3  -5  -5    8.72   14.91
  -3  -5  -6   -7.61   16.18
  -3  -5  -7  -12.12   18.44
  -3  -5  -8   18.22   17.04
  -3  -6  12    9.03   11.88
  -3  -6  11   36.94    8.66
  -3  -6  10    2.21   14.62
  -3  -6   9   20.77   14.10
  -3  -6   8   10.45   13.29
  -3  -6   7  -19.43   13.91
  -3  -6   6   31.07    7.83
  -3  -6   5   -4.67   11.60
  -3  -6   4  124.89   11.72
  -3  -6   3  -10.30   12.11
  -3  -6   2    2.25   12.02
  -3  -6   1    3.86   12.87
  -3  -6   0  -18.08   12.99
  -3  -6  -1   22.20    8.36
  -3  -6  -2    8.95   13.23
  -3  -6  -3   88.89   10.15
  -3  -6  -4   15.63    8.32
  -3  -6  -5   46.28   10.82
  -3  -6  -6   12.51   18.17
  -3  -7  11   12.15   14.61
  -3  -7  10   -2.46   13.99
  -3  -7   9    9.14   14.37
  -3  -7   8    2.05   14.65
  -3  -7   7    7.25   13.48
  -3  -7   6    9.52   12.40
  -3  -7   5   30.81    7.53
  -3  -7   4  -21.01   13.40
  -3  -7   3   14.05   15.28
  -3  -7   2   37.59    7.82
  -3  -7   1   52.18    9.03
  -3  -7   0   63.81    8.91
  -3  -7  -1   24.83    8.36
  -3  -7  -2  -11.33   16.41
  -3  -7  -3   -5.24   16.53
  -3  -7  -4    9.23   17.08
  -3  -7  -5   -7.56   19.80
  -3  -8  11   13.75   12.44
  -3  -8  10    5.41   15.42
  -3  -8   9   12.75    8.85
  -3  -8   8   -1.46   15.46
  -3  -8   7  -10.23   14.88
  -3  -8   6  -11.16   13.77
  -3  -8   5    9.06    9.60
  -3  -8   4    0.00   15.56
  -3  -8   3    1.06   14.04
  -3  -8   2    4.18   13.55
  -3  -8   1   21.70   15.89
  -3  -8   0   10.83   14.60
  -3  -8  -1   19.79   10.04
  -3  -8  -2   17.43   16.60
  -3  -8  -3  -14.44   18.00
  -3  -9   9    5.48   16.29
  -3  -9   8   -5.27   16.60
  -3  -9   7  -24.35   16.49
  -3  -9   6  -33.54   17.34
  -3  -9   5  -23.36   16.81
  -3  -9   4    1.35   15.67
  -3  -9   3   16.12   18.07
  -3  -9   2   -3.74   14.17
  -3  -9   1   18.21   17.09
  -3  -9   0    8.45   17.94
  -3  -9  -1    8.61   14.82
  -3 -10   7    0.00   17.12
  -3 -10   6   17.66   11.80
  -3 -10   5   22.17   15.58
  -3 -10   4   -4.42   15.91
  -3 -10   3  -37.78   18.74
  -3 -10   2   21.76   17.12
  -4  10   0    7.37   17.63
  -4  10  -1   15.67    9.28
  -4  10  -2    6.80   15.43
  -4  10  -3    4.01   16.71
  -4  10  -4   13.73   16.50
  -4  10  -5    6.67   17.30
  -4  10  -6  -13.95   15.90
  -4   9   3  -15.20   19.10
  -4   9   2    4.16   20.18
  -4   9   1   11.30   19.08
  -4   9   0   -7.78   16.50
  -4   9  -1    6.26   15.85
  -4   9  -2    5.15   17.66
  -4   9  -3   80.76   10.85
  -4   9  -4   -2.16   16.80
  -4   9  -5   41.53    9.72
  -4   9  -6    4.92   17.47
  -4   9  -7   12.19   17.49
  -4   9  -8   -0.25   16.98
  -4   8   5   78.10   12.14
  -4   8   4    5.63   15.68
  -4   8   3   89.02   11.68
  -4   8   2    9.86   15.25
  -4   8   1   24.36    8.88
  -4   8   0   17.72   14.74
  -4   8  -1   13.75   16.18
  -4   8  -2   15.86   13.58
  -4   8  -3  -12.79   15.88
  -4   8  -4   -4.42   14.74
  -4   8  -5    9.56   15.50
  -4   8  -6   18.20   16.17
  -4   8  -7   23.95    9.75
  -4   8  -8   16.31   11.09
  -4   8  -9   11.99   17.42
  -4   8 -10   13.00   15.62
  -4   7   6   15.62   18.87
  -4   7   5   -5.48   19.06
  -4   7   4  -13.71   16.61
  -4   7   3   10.62   15.57
  -4   7   2    3.39   14.71
  -4   7   1   28.91    9.64
  -4   7   0   18.75    8.73
  -4   7  -1   96.74    9.44
  -4   7  -2    6.61   11.70
  -4   7  -3   20.59   15.36
  -4   7  -4    0.12   13.28
  -4   7  -5  -15.53   13.22
  -4   7  -6   11.28   14.84
  -4   7  -7   -7.72   13.37
  -4   7  -8   11.30   14.45
  -4   7  -9   39.95   10.14
  -4   7 -10   23.32   16.85
  -4   6   7   23.45   16.84
  -4   6   6    3.90   15.28
  -4   6   5   71.21   10.81
  -4   6   4  -10.61   13.99
  -4   6   3   83.17   10.00
  -4   6   2    2.58   13.07
  -4   6   1    6.55    8.58
  -4   6   0  122.21   11.99
  -4   6  -1  137.54   11.47
  -4   6  -2   40.15    7.92
  -4   6  -3    3.04   11.91
  -4   6  -4    7.08    8.61
  -4   6  -5   55.20    7.72
  -4   6  -6   15.20   11.13
  -4   6  -7   24.60    8.20
  -4   6  -8   -0.12   13.94
  -4   6  -9   77.06   10.24
  -4   6 -10   -8.19   17.69
  -4   6 -11    3.01   11.83
  -4   5   8   19.41   16.64
  -4   5   7   22.03   14.84
  -4   5   6  -21.25   15.61
  -4   5   5   26.08    8.20
  -4   5   4   45.09    8.30
  -4   5   3   -8.46   12.84
  -4   5   2   12.00   12.63
  -4   5   1   17.31   12.54
  -4   5   0   40.24    7.00
  -4   5  -1  396.34   20.25
  -4   5  -2    2.65   11.63
  -4   5  -3  120.70    9.54
  -4   5  -4   61.89    7.17
  -4   5  -5   24.58    7.32
  -4   5  -6   18.34   13.17
  -4   5  -7  -19.07   14.07
  -4   5  -8   -7.00   14.73
  -4   5  -9   10.29   15.51
  -4   5 -10  -12.53   17.98
  -4   5 -11    2.67   16.14
  -4   4   9   14.21   16.78
  -4   4   8  -33.32   16.70
  -4   4   7   43.43    9.93
  -4   4   6   -8.11   14.39
  -4   4   5   40.56    8.20
  -4   4   4  101.71    8.40
  -4   4   3  275.18   17.29
  -4   4   2  121.93    9.67
  -4   4   1   64.10    6.84
   4  -4   0   -0.14   11.86
  -4   4   0    6.71    9.44
   4  -4   1    7.09   11.49
  -4   4  -1   15.67    5.93
   4  -4   2    9.39   11.27
  -4   4  -2   -9.68    9.21
  -4   4  -3    5.53    9.04
  -4   4  -4   -7.15   10.82
  -4   4  -5   92.22    7.89
  -4   4  -6   81.13    8.18
  -4   4  -7  356.20   22.64
  -4   4  -8  100.06   10.00
  -4   4  -9  -25.46   15.93
  -4   4 -10   -4.78   15.37
  -4   4 -11   20.24   15.33
  -4   3  10   68.84   11.66
  -4   3   9   41.47    9.77
  -4   3   8   21.78   17.14
  -4   3   7  -22.78   14.58
  -4   3   6   17.24   13.73
  -4   3   5   17.64   12.21
  -4   3   4   19.86   13.65
  -4   3   3   42.30    6.94
   4  -3  -2   96.73    8.93
  -4   3   2   74.27    6.93
   4  -3  -1  562.75   20.49
  -4   3   1  601.28   20.91
   4  -3   0  117.20    9.12
  -4   3   0  103.84    8.36
   4  -3   1  435.85   18.53
  -4   3  -1  461.49   18.15
   4  -3   2   26.15    6.12
  -4   3  -2   30.32    5.34
   4  -3   3  573.16   20.91
  -4   3  -3  559.51   19.54
  -4   3  -4    7.45    9.35
  -4   3  -5  -10.10   10.64
  -4   3  -6   41.02    7.51
  -4   3  -7  206.35   17.85
  -4   3  -8  -12.77   14.80
  -4   3  -9  -13.36   15.04
  -4   3 -10   13.71   16.07
  -4   3 -11   -6.77   15.97
  -4   2  11   17.82   17.55
  -4   2  10   -2.78   17.06
  -4   2   9   39.91    8.93
  -4   2   8    9.25   14.03
  -4   2   7   58.65    8.37
  -4   2   6   22.26    7.31
  -4   2   5  517.68   22.10
  -4   2   4   81.97    7.97
   4  -2  -3  111.06    9.53
  -4   2   3  131.15    8.70
   4  -2  -2   52.05    6.76
  -4   2   2   47.71    6.07
   4  -2  -1   70.70    6.53
  -4   2   1   76.90    7.28
   4  -2   0   11.10    9.50
  -4   2   0    5.91    8.69
   4  -2   1  -13.24    9.57
  -4   2  -1   -5.31    7.12
   4  -2   2  638.58   19.29
  -4   2  -2  593.77   18.33
   4  -2   3   77.46    6.88
  -4   2  -3   82.10    7.44
   4  -2   4   35.86    7.05
  -4   2  -4   40.92    5.78
  -4   2  -5   15.92    6.36
  -4   2  -6    6.91   11.51
  -4   2  -7  149.33   12.51
  -4   2  -8   19.47   13.77
  -4   2  -9   21.70   15.44
  -4   2 -10   19.81   16.93
  -4   2 -11   -0.81   11.92
  -4   1  11   17.77   16.01
  -4   1  10   10.85   11.68
  -4   1   9   13.07   15.09
  -4   1   8   -4.72   13.18
  -4   1   7    8.61   10.97
  -4   1   6  435.12   20.74
  -4   1   5   69.19    6.80
   4  -1  -4  -10.91   11.47
  -4   1   4    7.14    9.73
   4  -1  -3   11.79    9.55
  -4   1   3    6.71    6.33
   4  -1  -2   -7.63    9.28
  -4   1   2    2.52    8.13
   4  -1  -1  559.83   18.68
  -4   1   1  553.15   17.97
   4  -1   0   95.43    7.46
  -4   1   0  100.07    7.01
   4  -1   1  310.86   13.99
  -4   1  -1  284.93   13.42
   4  -1   2   66.88    6.55
  -4   1  -2   63.47    6.07
   4  -1   3  162.24   14.29
  -4   1  -3  175.06   12.54
   4  -1   4   16.63    7.08
  -4   1  -4   17.21    5.98
  -4   1  -5   -0.69    9.89
  -4   1  -6   61.45    7.98
  -4   1  -7    1.65   12.66
  -4   1  -8   11.87   13.17
  -4   1  -9    7.99   16.04
  -4   1 -10   -3.78   17.30
  -4   1 -11  -27.90   18.46
  -4   0  12   22.94   15.51
  -4   0  11  -10.33   16.73
  -4   0  10   93.26   10.28
  -4   0   9   -0.26   14.46
  -4   0   8   54.80    7.93
  -4   0   7   36.09    6.73
  -4   0   6  109.20    9.89
   4   0  -5  287.48   17.55
  -4   0   5  332.71   17.70
   4   0  -4  328.67   17.78
  -4   0   4  356.73   16.48
   4   0  -3  223.33   13.79
  -4   0   3  218.63   12.92
   4   0  -2  301.40   14.64
  -4   0   2  286.70   14.02
   4   0  -1   21.84    4.98
  -4   0   1   23.48    4.59
   4   0   0   72.31    5.91
  -4   0   0   56.06    5.33
   4   0   1    1.09    9.59
  -4   0  -1    9.84    4.83
   4   0   2   -0.50   10.63
  -4   0  -2  -13.65    9.14
   4   0   3    5.40   11.65
  -4   0  -3   11.21    4.88
  -4   0  -4  150.95   13.81
  -4   0  -5  271.82   16.81
  -4   0  -6  194.72   13.07
  -4   0  -7   77.79    8.92
  -4   0  -8    6.50   14.49
  -4   0  -9   91.15   11.74
  -4   0 -10    4.28   17.41
  -4  -1  12  -13.99   16.07
  -4  -1  11    5.05   15.01
  -4  -1  10   43.61    9.27
  -4  -1   9   12.08    9.27
  -4  -1   8   84.19    8.13
  -4  -1   7   40.69    6.76
  -4  -1   6   -8.72    9.98
   4   1  -5   -8.77   11.06
  -4  -1   5   -5.31    8.72
   4   1  -4   80.41    6.74
  -4  -1   4   83.15    7.58
   4   1  -3  177.39   13.27
  -4  -1   3  180.07   11.93
   4   1  -2   16.17    5.36
  -4  -1   2   22.42    4.66
   4   1  -1  635.54   20.31
  -4  -1   1  642.38   19.10
   4   1   0   -3.83    8.88
  -4  -1   0  -11.10    8.47
   4   1   1 3599.88   43.72
  -4  -1  -1 3119.87   40.97
   4   1   2  170.42   10.22
  -4  -1  -2  175.97   12.75
   4   1   3   16.99   12.32
  -4  -1  -3   33.64    6.07
  -4  -1  -4   15.14    6.06
  -4  -1  -5   87.26    8.13
  -4  -1  -6   19.68    7.67
  -4  -1  -7    6.00   14.38
  -4  -1  -8   15.86   15.81
  -4  -1  -9    9.16   16.15
  -4  -1 -10   23.27   10.36
  -4  -2  12   12.21   15.41
  -4  -2  11    6.32   14.86
  -4  -2  10   58.06    9.60
  -4  -2   9   37.55    8.28
  -4  -2   8    3.45   10.28
  -4  -2   7  367.12   20.38
  -4  -2   6   11.22    9.68
   4   2  -5  150.03   13.40
  -4  -2   5  144.37   12.99
   4   2  -4  452.68   18.59
  -4  -2   4  493.19   18.10
   4   2  -3  490.09   19.04
  -4  -2   3  541.98   18.39
   4   2  -2  -14.07   10.31
  -4  -2   2   18.10    5.07
   4   2  -1   24.08    5.99
  -4  -2   1   20.90    5.20
   4   2   0 1378.94   28.74
  -4  -2   0 1236.13   26.60
   4   2   1  231.52   15.31
  -4  -2  -1  186.92   13.61
   4   2   2  109.97    9.84
  -4  -2  -2  119.69    8.58
  -4  -2  -3    8.95   10.42
  -4  -2  -4  114.42    9.83
  -4  -2  -5   35.25    7.95
  -4  -2  -6   20.98   15.07
  -4  -2  -7   58.92    9.97
  -4  -2  -8   -8.87   15.87
  -4  -2  -9   -8.25   16.00
  -4  -3  12   60.81   10.37
  -4  -3  11   21.31    9.33
  -4  -3  10   44.23    8.41
  -4  -3   9   -4.91   13.35
  -4  -3   8   27.70    7.56
  -4  -3   7   54.77    7.30
  -4  -3   6   54.02    6.58
  -4  -3   5   16.59    5.95
   4   3  -4  449.93   19.69
  -4  -3   4  454.83   17.91
   4   3  -3   37.78    6.90
  -4  -3   3   39.54    5.80
   4   3  -2   49.27    6.74
  -4  -3   2   43.85    5.89
   4   3  -1  156.28   10.16
  -4  -3   1  160.72   13.18
   4   3   0   14.91    6.64
  -4  -3   0    5.93    8.92
  -4  -3  -1  180.27   14.77
  -4  -3  -2  -14.55   11.06
  -4  -3  -3   12.55    6.49
  -4  -3  -4   -6.69   11.69
  -4  -3  -5   17.32   14.40
  -4  -3  -6   -3.12   14.63
  -4  -3  -7   -3.68   17.62
  -4  -3  -8   16.19   18.58
  -4  -3  -9   -7.36   18.42
  -4  -4  12   97.94   11.80
  -4  -4  11   -9.79   13.75
  -4  -4  10   36.44    8.73
  -4  -4   9   -0.27   14.68
  -4  -4   8   -6.89   12.21
  -4  -4   7   65.29    7.67
  -4  -4   6   -8.17   11.53
  -4  -4   5   56.52    6.81
  -4  -4   4   68.12    6.49
  -4  -4   3   -1.20   10.80
  -4  -4   2   -7.70    9.79
  -4  -4   1   10.86   11.10
  -4  -4   0   -3.48   10.66
  -4  -4  -1  -10.28   11.41
  -4  -4  -2   82.26    8.81
  -4  -4  -3  -20.12   12.89
  -4  -4  -4    2.96   12.03
  -4  -4  -5   20.60    8.45
  -4  -4  -6   11.82   10.37
  -4  -4  -7  119.19   12.16
  -4  -4  -8   19.42   13.28
  -4  -5  12   21.11   15.78
  -4  -5  11  -20.74   16.81
  -4  -5  10   32.56    9.49
  -4  -5   9   11.99    9.02
  -4  -5   8   -5.78   12.71
  -4  -5   7   -1.98   12.46
  -4  -5   6  118.41   10.28
  -4  -5   5   31.93    7.07
  -4  -5   4  -19.17   10.93
  -4  -5   3   21.06    6.85
  -4  -5   2   15.27   10.89
  -4  -5   1  423.92   22.04
  -4  -5   0   51.69    7.75
  -4  -5  -1  101.75    9.31
  -4  -5  -2    0.67   14.26
  -4  -5  -3   93.47    9.80
  -4  -5  -4   19.66   13.45
  -4  -5  -5   -1.34   16.59
  -4  -5  -6  -19.93   17.27
  -4  -5  -7   13.38   17.31
  -4  -6  12  -35.40   18.42
  -4  -6  11   20.25   14.89
  -4  -6  10   15.88    9.19
  -4  -6   9   30.18    8.31
  -4  -6   8   -6.16   13.98
  -4  -6   7   11.53   13.67
  -4  -6   6   91.85    9.02
  -4  -6   5  338.80   21.23
  -4  -6   4    2.63   12.79
  -4  -6   3   21.88    7.04
  -4  -6   2   14.86   12.64
  -4  -6   1   20.81    7.67
  -4  -6   0   34.30    7.46
  -4  -6  -1   15.25   13.85
  -4  -6  -2   31.17    9.33
  -4  -6  -3    3.62   10.86
  -4  -6  -4   48.06    9.58
  -4  -6  -5    2.86   17.46
  -4  -6  -6   -4.30   19.40
  -4  -7  11   15.60   10.66
  -4  -7  10   23.34   16.31
  -4  -7   9   11.02   16.08
  -4  -7   8   13.86   15.51
  -4  -7   7   14.53    9.98
  -4  -7   6  142.68   14.10
  -4  -7   5   15.76    7.47
  -4  -7   4   61.40    8.80
  -4  -7   3    8.86    7.49
  -4  -7   2   13.18    7.64
  -4  -7   1   15.90    8.17
  -4  -7   0   19.74    7.88
  -4  -7  -1   45.69   10.13
  -4  -7  -2   26.62    8.88
  -4  -7  -3   15.23   11.55
  -4  -7  -4    7.02   17.46
  -4  -8  10   10.04   16.70
  -4  -8   9   -7.98   17.84
  -4  -8   8   19.14   14.23
  -4  -8   7    7.53   17.43
  -4  -8   6    3.39   14.74
  -4  -8   5  -25.43   15.33
  -4  -8   4    5.87   14.86
  -4  -8   3  -14.82   15.25
  -4  -8   2  -12.71   13.92
  -4  -8   1   20.61   14.58
  -4  -8   0   20.83   16.36
  -4  -8  -1  -13.91   16.54
  -4  -8  -2   20.07    9.43
  -4  -8  -3  -19.79   21.03
  -4  -9   8    0.21   15.86
  -4  -9   7    0.00   15.06
  -4  -9   6    9.29   13.35
  -4  -9   5   13.29   14.56
  -4  -9   4   18.03    9.85
  -4  -9   3   -2.34   17.06
  -4  -9   2   13.39   10.59
  -4  -9   1   16.16    9.59
  -4  -9   0    1.60   17.73
  -5  10  -2  -21.71   19.59
  -5  10  -3   20.78    9.02
  -5  10  -4  -24.70   18.55
  -5   9   2   15.17   10.14
  -5   9   1  -10.20   17.58
  -5   9   0    9.65   19.93
  -5   9  -1  -26.09   15.75
  -5   9  -2   36.28   10.46
  -5   9  -3   10.25   15.33
  -5   9  -4   11.54   16.35
  -5   9  -5  -14.09   15.98
  -5   9  -6   16.16   16.16
  -5   9  -7  -12.53   17.89
  -5   8   4   23.78   10.78
  -5   8   3   52.66   10.79
  -5   8   2    7.98   17.55
  -5   8   1   -2.25   17.09
  -5   8   0    5.85   15.16
  -5   8  -1  -11.30   14.62
  -5   8  -2   -6.69   14.98
  -5   8  -3   -5.59   14.86
  -5   8  -4    0.00   15.22
  -5   8  -5    4.55   15.90
  -5   8  -6    2.62   18.55
  -5   8  -7   11.52   15.02
  -5   8  -8   12.07   17.54
  -5   8  -9  -29.75   18.20
  -5   7   6    9.06   17.48
  -5   7   5   26.49   17.70
  -5   7   4  -12.99   15.37
  -5   7   3   18.23   15.44
  -5   7   2   23.03    8.85
  -5   7   1   10.95   10.32
  -5   7   0   87.82   10.04
  -5   7  -1    8.84   14.11
  -5   7  -2   72.45    9.08
  -5   7  -3   -7.38   14.90
  -5   7  -4    7.27   13.06
  -5   7  -5   -1.04   14.43
  -5   7  -6   -3.07   14.34
  -5   7  -7  -19.73   15.01
  -5   7  -8  -12.27   13.56
  -5   7  -9   18.80   16.55
  -5   7 -10    0.00   17.67
  -5   6   7    1.19   16.98
  -5   6   6    7.81   15.86
  -5   6   5   -0.12   15.88
  -5   6   4   10.83    8.19
  -5   6   3   65.82    9.72
  -5   6   2    6.95   13.36
  -5   6   1    7.74   14.40
  -5   6   0   15.51   12.29
  -5   6  -1    9.66   11.68
  -5   6  -2   28.77    7.31
  -5   6  -3   23.57    7.53
  -5   6  -4    1.05   14.78
  -5   6  -5   15.86   12.48
  -5   6  -6  -11.85   15.66
  -5   6  -7    1.95   12.96
  -5   6  -8  -13.01   16.26
  -5   6  -9   15.80    8.82
  -5   6 -10   15.27   17.61
  -5   5   8    9.93   17.66
  -5   5   7   14.24   16.11
  -5   5   6   -2.36   14.33
  -5   5   5  -21.52   14.83
  -5   5   4    3.87   13.97
  -5   5   3   14.77   12.93
  -5   5   2   50.52    7.90
  -5   5   1    7.21   12.43
  -5   5   0  228.48   17.73
  -5   5  -1    7.03   11.71
  -5   5  -2  226.54   17.68
  -5   5  -3   16.36    6.05
  -5   5  -4   -1.48   12.27
  -5   5  -5   12.05   11.91
  -5   5  -6    3.69   12.94
  -5   5  -7   -2.91   13.40
  -5   5  -8    2.36   15.30
  -5   5  -9    3.81   16.56
  -5   5 -10  -29.79   17.35
  -5   4   9   11.67    9.39
  -5   4   8   10.68   18.59
  -5   4   7    2.79    8.99
  -5   4   6   68.54    8.73
  -5   4   5   51.18    8.32
  -5   4   4   51.42    8.24
  -5   4   3  143.41   11.09
  -5   4   2    3.97   12.04
  -5   4   1   34.95    7.05
  -5   4   0  -10.87   11.97
  -5   4  -1   35.34    6.42
  -5   4  -2    0.58   11.25
  -5   4  -3   44.15    6.39
  -5   4  -4   -0.75   12.29
  -5   4  -5   15.96   12.90
  -5   4  -6   55.18    7.56
  -5   4  -7  -15.62   15.25
  -5   4  -8    7.92   10.81
  -5   4  -9   23.67    9.28
  -5   4 -10   -6.49   16.24
  -5   4 -11  -14.44   18.49
  -5   3  10    0.12   17.15
  -5   3   9   39.10   10.52
  -5   3   8   17.17   15.41
  -5   3   7   -8.69   14.41
  -5   3   6   -5.77   13.13
  -5   3   5    0.00   12.77
  -5   3   4   33.57    7.12
  -5   3   3   11.48   12.15
  -5   3   2  226.05   16.92
  -5   3   1    6.61   10.25
  -5   3   0  281.58   16.79
  -5   3  -1   31.85    5.72
  -5   3  -2  155.57   13.79
  -5   3  -3   47.77    6.57
  -5   3  -4    2.93   10.02
  -5   3  -5   -7.91   11.37
  -5   3  -6   10.47   11.50
  -5   3  -7   -9.75   14.40
  -5   3  -8   13.52   10.20
  -5   3  -9    4.68   16.64
  -5   3 -10   10.82   16.89
  -5   3 -11   10.18    9.38
  -5   2  10   11.23   18.96
  -5   2   9   -1.47   14.65
  -5   2   8   88.50    9.41
  -5   2   7    8.08    8.28
  -5   2   6  112.96    9.50
  -5   2   5  115.59   10.32
  -5   2   4   26.30    6.67
  -5   2   3   46.74    6.70
   5  -2  -2    7.93   11.19
  -5   2   2    5.54    9.39
   5  -2  -1   -4.60   11.51
  -5   2   1   -1.16    9.07
   5  -2   0    4.75   10.54
  -5   2   0    5.35    9.64
   5  -2   1   37.08    6.62
  -5   2  -1   42.68    5.81
   5  -2   2   89.64    7.43
  -5   2  -2   82.99    6.74
  -5   2  -3   34.54    5.84
  -5   2  -4  122.82    9.66
  -5   2  -5    3.81    8.13
  -5   2  -6   47.60    8.07
  -5   2  -7    7.76   14.12
  -5   2  -8   14.94   13.51
  -5   2  -9   -6.21   14.72
  -5   2 -10   12.12   17.70
  -5   1  11   21.07   15.74
  -5   1  10    6.42   15.02
  -5   1   9    2.43   15.03
  -5   1   8   17.35   15.00
  -5   1   7    8.76    7.27
  -5   1   6   33.62    7.50
  -5   1   5   25.51    6.65
  -5   1   4  141.33   10.01
   5  -1  -3    4.20    7.77
  -5   1   3    9.26    9.47
   5  -1  -2  121.25    9.32
  -5   1   2  101.55    8.43
   5  -1  -1  -18.20   11.35
  -5   1   1    0.16    8.42
   5  -1   0  216.65   14.22
  -5   1   0  203.83   12.55
   5  -1   1   44.88    6.36
  -5   1  -1   40.01    5.55
   5  -1   2   46.74    7.41
  -5   1  -2   60.64    6.39
  -5   1  -3  -10.60   11.52
  -5   1  -4   11.26    7.75
  -5   1  -5    6.36   11.62
  -5   1  -6   13.27   12.66
  -5   1  -7   32.96    8.01
  -5   1  -8   -6.86   14.35
  -5   1  -9  -12.17   14.82
  -5   1 -10  -19.08   17.87
  -5   0  11  -10.55   15.88
  -5   0  10   17.40    8.97
  -5   0   9   21.15    7.73
  -5   0   8   49.30    9.06
  -5   0   7   27.62    7.50
  -5   0   6  146.90   11.72
  -5   0   5   18.35    6.43
  -5   0   4  139.10    9.42
   5   0  -3   47.27    6.78
  -5   0   3   69.48    6.27
   5   0  -2   -1.95   10.91
  -5   0   2    4.87    9.38
   5   0  -1   14.27    5.76
  -5   0   1   12.90    4.95
   5   0   0    6.38    7.32
  -5   0   0   11.04    4.77
   5   0   1   15.60    6.01
  -5   0  -1    1.24    8.66
   5   0   2   19.76    6.56
  -5   0  -2   15.16    5.73
  -5   0  -3   -3.46   10.05
  -5   0  -4   75.57    8.31
  -5   0  -5   15.99    6.70
  -5   0  -6   69.88    9.30
  -5   0  -7   -6.20   15.29
  -5   0  -8    9.94    8.87
  -5   0  -9   -5.35   16.45
  -5   0 -10   -1.30   18.31
  -5  -1  12   17.43   14.59
  -5  -1  11    7.52   18.07
  -5  -1  10   -8.17   13.95
  -5  -1   9   35.06    8.53
  -5  -1   8    7.69   12.99
  -5  -1   7   -0.74   12.26
  -5  -1   6  -13.63   10.81
  -5  -1   5  112.24    9.33
  -5  -1   4  234.23   15.15
   5   1  -3   57.28    6.90
  -5  -1   3   73.92    7.15
   5   1  -2  105.52    8.39
  -5  -1   2  105.37    7.64
   5   1  -1   -2.73   11.05
  -5  -1   1  -10.29   10.10
   5   1   0  114.31    9.21
  -5  -1   0  122.53   11.98
   5   1   1  104.39    8.45
  -5  -1  -1  118.10    8.26
  -5  -1  -2   38.52    6.61
  -5  -1  -3   80.67    7.16
  -5  -1  -4    8.07   11.62
  -5  -1  -5   10.56   10.35
  -5  -1  -6   10.11   14.34
  -5  -1  -7    0.98   17.43
  -5  -1  -8    5.31   16.54
  -5  -1  -9   14.01   17.38
  -5  -2  12    0.21   15.86
  -5  -2  11    7.64   15.50
  -5  -2  10   22.27    9.45
  -5  -2   9    2.19   11.89
  -5  -2   8  131.47   12.15
  -5  -2   7   53.92    7.66
  -5  -2   6  134.28   13.32
  -5  -2   5   13.84    5.68
  -5  -2   4    3.21    8.92
  -5  -2   3    3.41    8.90
   5   2  -2   52.44    6.99
  -5  -2   2   37.02    6.15
   5   2  -1   42.62    6.99
  -5  -2   1   35.56    5.88
  -5  -2   0   12.49    8.96
  -5  -2  -1   36.91    6.52
  -5  -2  -2  193.15   16.92
  -5  -2  -3   -0.80   11.18
  -5  -2  -4  120.42   11.10
  -5  -2  -5   17.86   12.09
  -5  -2  -6   60.02    9.69
  -5  -2  -7   12.38   15.06
  -5  -2  -8   14.90   15.98
  -5  -2  -9    3.13   17.00
  -5  -3  12   -5.43   15.13
  -5  -3  11    8.85   16.69
  -5  -3  10   16.12    8.03
  -5  -3   9  -17.57   13.90
  -5  -3   8   12.07   12.28
  -5  -3   7   -5.01   12.94
  -5  -3   6   39.34    6.87
  -5  -3   5   54.90    6.84
  -5  -3   4  148.03   13.39
  -5  -3   3   -0.67   10.05
  -5  -3   2   87.70    8.44
  -5  -3   1   15.72    6.26
  -5  -3   0   12.66   10.71
  -5  -3  -1   14.50   10.36
  -5  -3  -2   18.46    6.94
  -5  -3  -3   -6.12   12.28
  -5  -3  -4   -0.84   13.65
  -5  -3  -5   44.53    9.43
  -5  -3  -6   20.30   16.76
  -5  -3  -7   13.39   16.28
  -5  -3  -8   13.04   17.56
  -5  -4  12   -5.66   15.51
  -5  -4  11   18.52    8.69
  -5  -4  10   39.42    8.97
  -5  -4   9    6.86   10.12
  -5  -4   8   28.91    8.11
  -5  -4   7  -11.30   13.37
  -5  -4   6   17.68    6.08
  -5  -4   5    2.11   10.51
  -5  -4   4    8.44   10.60
  -5  -4   3    8.05    8.24
  -5  -4   2   -0.65   11.64
  -5  -4   1   24.72    6.53
  -5  -4   0   12.83   11.66
  -5  -4  -1   11.07    7.00
  -5  -4  -2   47.71    8.44
  -5  -4  -3    2.96   14.38
  -5  -4  -4    6.93   11.10
  -5  -4  -5   -2.34   15.36
  -5  -4  -6    6.46   14.80
  -5  -4  -7   20.04   15.09
  -5  -5  11   11.57   10.78
  -5  -5  10   -1.13   14.77
  -5  -5   9   -3.24   14.61
  -5  -5   8    0.00   14.24
  -5  -5   7    8.52   12.55
  -5  -5   6   32.45    7.30
  -5  -5   5  -14.12   13.28
  -5  -5   4   40.18    7.66
  -5  -5   3   15.36   11.56
  -5  -5   2   46.95    7.26
  -5  -5   1    3.55   12.22
  -5  -5   0   21.73    8.10
  -5  -5  -1    7.91    9.59
  -5  -5  -2   19.11   12.87
  -5  -5  -3   11.15    9.48
  -5  -5  -4   -1.32   14.51
  -5  -5  -5   10.82    9.48
  -5  -5  -6  -16.01   16.92
  -5  -6  11   10.08   10.70
  -5  -6  10   20.37   13.97
  -5  -6   9   -0.93   15.49
  -5  -6   8   -2.10   15.09
  -5  -6   7   11.55   13.44
  -5  -6   6   -3.92   13.12
  -5  -6   5    8.82   12.74
  -5  -6   4    2.92   13.38
  -5  -6   3   10.60   12.45
  -5  -6   2    7.83   12.08
  -5  -6   1   11.07   13.84
  -5  -6   0   24.14    9.24
  -5  -6  -1   -2.40   15.67
  -5  -6  -2   56.38    8.39
  -5  -6  -3   -1.15   15.88
  -5  -6  -4   26.17   18.11
  -5  -6  -5  -30.85   18.94
  -5  -7  10  -19.16   16.23
  -5  -7   9  -25.68   15.73
  -5  -7   8   13.75   13.53
  -5  -7   7    6.91   14.61
  -5  -7   6    5.71   12.87
  -5  -7   5   11.29   13.48
  -5  -7   4   80.40    9.30
  -5  -7   3    1.03   11.09
  -5  -7   2   18.99    8.09
  -5  -7   1    0.10   13.64
  -5  -7   0  -19.89   17.20
  -5  -7  -1   16.95   13.89
  -5  -7  -2   -3.00   17.03
  -5  -7  -3    2.78   16.74
  -5  -8   9  -14.26   17.73
  -5  -8   8   -1.36   15.26
  -5  -8   7  -10.55   14.43
  -5  -8   6   11.34   10.69
  -5  -8   5  -30.04   16.23
  -5  -8   4  -22.33   15.27
  -5  -8   3  -17.20   15.34
  -5  -8   2  -15.08   14.76
  -5  -8   1   21.08   15.54
  -5  -8   0   -1.23   20.30
  -5  -8  -1   -7.63   17.79
  -5  -9   7    8.56   14.82
  -5  -9   6    5.80   14.44
  -5  -9   5   19.51   15.17
  -5  -9   4  -12.91   18.96
  -5  -9   3   10.05   17.19
  -5  -9   2   -1.31   16.35
  -6   9   1    1.51   17.50
  -6   9   0   20.32   16.23
  -6   9  -1   -2.89   17.45
  -6   9  -2   -0.13   16.88
  -6   9  -3   15.84   11.89
  -6   9  -4    6.80   17.94
  -6   9  -5    0.23   16.39
  -6   9  -6   -4.34   18.58
  -6   8   3   -8.55   19.46
  -6   8   2   18.41   17.74
  -6   8   1   17.37   14.51
  -6   8   0  -12.79   16.67
  -6   8  -1  -12.21   14.55
  -6   8  -2   14.92   14.80
  -6   8  -3   58.46   10.36
  -6   8  -4  -27.53   17.43
  -6   8  -5   17.63   17.13
  -6   8  -6  -18.48   17.73
  -6   8  -7   -2.90   17.25
  -6   7   5   13.57   21.07
  -6   7   4  -24.78   16.94
  -6   7   3   79.55   10.06
  -6   7   2   -9.03   16.21
  -6   7   1   25.70    8.81
  -6   7   0   24.13    8.63
  -6   7  -1   12.68    8.24
  -6   7  -2   -5.65   15.32
  -6   7  -3   -2.46   14.43
  -6   7  -4    2.37   14.63
  -6   7  -5    5.73   15.08
  -6   7  -6   15.32    8.78
  -6   7  -7   12.47   14.66
  -6   7  -8   20.09    8.22
  -6   6   6    1.40   15.01
  -6   6   5   13.64    9.68
  -6   6   4   12.84   10.42
  -6   6   3   11.92   16.50
  -6   6   2   -9.93   14.69
  -6   6   1   14.88   13.64
  -6   6   0  -13.38   14.54
  -6   6  -1   72.86    9.12
  -6   6  -2   16.76   13.73
  -6   6  -3    8.79   14.02
  -6   6  -4  -14.79   14.72
  -6   6  -5  -18.87   13.98
  -6   6  -6   38.49    9.04
  -6   6  -7    1.45   16.36
  -6   6  -8    7.18    8.65
  -6   6  -9   -4.36   18.99
  -6   5   8  -13.62   18.33
  -6   5   7  -52.03   19.50
  -6   5   6  -20.03   16.99
  -6   5   5   -1.16   16.82
  -6   5   4   13.09   14.64
  -6   5   3   91.34   10.01
  -6   5   2    6.86   12.52
  -6   5   1   18.03    7.47
  -6   5   0   34.12    7.92
  -6   5  -1  102.11    9.16
  -6   5  -2  140.91   12.44
  -6   5  -3   13.01   10.88
  -6   5  -4    0.91   13.58
  -6   5  -5    2.73   12.80
  -6   5  -6   22.65    7.89
  -6   5  -7    4.50   14.74
  -6   5  -8    3.80    8.88
  -6   5  -9   18.84   17.11
  -6   4   8  -29.62   17.16
  -6   4   7    5.23   15.25
  -6   4   6   37.66    8.84
  -6   4   5   19.14    7.72
  -6   4   4   -1.96   12.60
  -6   4   3   10.19    7.30
  -6   4   2   -1.75   13.18
  -6   4   1   38.15    6.87
  -6   4   0    9.03   12.20
  -6   4  -1  206.62   17.28
  -6   4  -2    9.30   11.32
  -6   4  -3  106.35   10.15
  -6   4  -4    4.16   13.44
  -6   4  -5   51.05    7.49
  -6   4  -6   37.76    8.01
  -6   4  -7    5.19   14.55
  -6   4  -8   47.99    9.38
  -6   4  -9  -27.37   16.87
  -6   4 -10    5.85   15.60
  -6   3   9   19.13   10.72
  -6   3   8    4.06   15.91
  -6   3   7    4.86   13.57
  -6   3   6    1.17   13.44
  -6   3   5   35.70    7.84
  -6   3   4   77.17    8.59
  -6   3   3  225.72   18.15
  -6   3   2   75.05    7.89
  -6   3   1   80.26    7.70
  -6   3   0   66.43    7.48
  -6   3  -1    2.25    9.78
  -6   3  -2   52.68    6.66
  -6   3  -3    5.20   10.32
  -6   3  -4   -0.72   10.48
  -6   3  -5    9.24   12.24
  -6   3  -6   43.06    8.84
  -6   3  -7  130.38   11.30
  -6   3  -8  124.08   11.61
  -6   3  -9  -28.11   17.05
  -6   3 -10    1.57   17.32
  -6   2  10    7.03   18.95
  -6   2   9   25.20   17.34
  -6   2   8   34.70   10.10
  -6   2   7    2.21   14.39
  -6   2   6   39.23    8.63
  -6   2   5    5.37   12.85
  -6   2   4   10.66   11.80
  -6   2   3    4.69   11.14
  -6   2   2    2.07    9.94
  -6   2   1  179.93   15.09
  -6   2   0  101.23    9.21
  -6   2  -1  149.79   14.73
  -6   2  -2    9.22    8.91
  -6   2  -3  379.03   20.85
  -6   2  -4   -1.58   10.89
  -6   2  -5    3.44   11.94
  -6   2  -6  -11.09   13.65
  -6   2  -7   34.05    8.76
  -6   2  -8   34.88   10.27
  -6   2  -9  -11.63   14.56
  -6   2 -10    2.91   15.63
  -6   1  10  -21.62   16.75
  -6   1   9   10.14   14.98
  -6   1   8    6.66   14.08
  -6   1   7    3.98   13.91
  -6   1   6   -8.63   13.06
  -6   1   5  491.57   24.20
  -6   1   4   17.03    6.10
  -6   1   3   90.06    7.95
  -6   1   2    4.90    8.93
  -6   1   1   -3.48   10.10
  -6   1   0   81.30    8.07
  -6   1  -1   -0.80   10.10
  -6   1  -2   24.57    6.24
  -6   1  -3   67.29    7.82
  -6   1  -4    3.55   11.87
  -6   1  -5    6.72   12.12
  -6   1  -6   13.06   14.00
  -6   1  -7   18.85    8.33
  -6   1  -8  -15.89   16.19
  -6   1  -9   17.57   16.61
  -6   0  11    8.67   15.44
  -6   0  10    3.74   15.56
  -6   0   9   41.96    9.03
  -6   0   8  -18.02   15.62
  -6   0   7   21.04    7.39
  -6   0   6  113.93    9.58
  -6   0   5  136.36   10.99
  -6   0   4   31.85    7.24
  -6   0   3   32.34    5.88
  -6   0   2   11.07    9.15
  -6   0   1   76.74    7.60
  -6   0   0   10.87    8.07
  -6   0  -1  164.17   14.36
  -6   0  -2    6.91    9.91
  -6   0  -3   96.35    8.22
  -6   0  -4   -2.70   13.67
  -6   0  -5   18.72   14.00
  -6   0  -6   69.70    9.13
  -6   0  -7  -24.92   16.57
  -6   0  -8   14.39   16.91
  -6   0  -9   11.23   17.73
  -6  -1  11    6.81   15.85
  -6  -1  10   20.11   18.12
  -6  -1   9   19.20    8.00
  -6  -1   8   13.36    7.89
  -6  -1   7   39.87    7.08
  -6  -1   6   22.45    6.54
  -6  -1   5  149.41   11.11
  -6  -1   4   85.10    7.31
  -6  -1   3  165.24   14.43
  -6  -1   2  179.75   14.44
  -6  -1   1   44.95    6.97
  -6  -1   0   23.82    6.46
  -6  -1  -1   13.31    6.14
  -6  -1  -2  182.62   16.99
  -6  -1  -3   15.34    6.37
  -6  -1  -4   19.37    7.76
  -6  -1  -5   18.71    8.65
  -6  -1  -6   73.42   10.87
  -6  -1  -7    0.29   17.27
  -6  -1  -8    9.87   14.96
  -6  -2  11   -4.14   14.52
  -6  -2  10   31.23    8.93
  -6  -2   9   28.25    8.29
  -6  -2   8   51.61    8.69
  -6  -2   7   14.01   12.33
  -6  -2   6   55.92    7.26
  -6  -2   5    6.81   10.14
  -6  -2   4   -1.47    9.63
  -6  -2   3   -4.93    9.74
  -6  -2   2    0.20   10.79
  -6  -2   1  118.98   10.03
  -6  -2   0   14.60   10.27
  -6  -2  -1  877.07   29.76
  -6  -2  -2  115.64   10.73
  -6  -2  -3   30.39    7.91
  -6  -2  -4  -11.24   12.69
  -6  -2  -5  -28.00   16.43
  -6  -2  -6   18.56   16.87
  -6  -2  -7   16.35   14.64
  -6  -2  -8    4.73   17.70
  -6  -3  11  -17.78   17.03
  -6  -3  10    6.19   15.42
  -6  -3   9  -33.60   16.52
  -6  -3   8   11.25   12.98
  -6  -3   7  143.90   12.59
  -6  -3   6   13.86   11.11
  -6  -3   5  126.11   10.47
  -6  -3   4  106.59   10.30
  -6  -3   3  352.73   19.58
  -6  -3   2   27.02    6.99
  -6  -3   1   13.85   12.55
  -6  -3   0   48.91    7.18
  -6  -3  -1   16.95   12.77
  -6  -3  -2  -10.97   13.52
  -6  -3  -3  -16.18   14.20
  -6  -3  -4   -1.09   15.07
  -6  -3  -5    3.59   14.80
  -6  -3  -6    1.21   16.65
  -6  -3  -7   12.35   12.58
  -6  -4  11   12.41   13.70
  -6  -4  10   11.38   11.95
  -6  -4   9   -1.28   14.54
  -6  -4   8  -15.00   13.71
  -6  -4   7    2.24   14.24
  -6  -4   6   -6.50   11.09
  -6  -4   5   -0.67   11.90
  -6  -4   4   33.32    7.87
  -6  -4   3  -13.11   12.20
  -6  -4   2    2.67   12.43
  -6  -4   1   40.33    8.02
  -6  -4   0    7.72   13.21
  -6  -4  -1   42.18    8.18
  -6  -4  -2   10.72   13.74
  -6  -4  -3   34.09    8.41
  -6  -4  -4    8.29    8.22
  -6  -4  -5   -1.41   15.87
  -6  -4  -6    7.01   16.69
  -6  -5  11   -5.67   17.85
  -6  -5  10   12.03   14.33
  -6  -5   9   -4.70   17.11
  -6  -5   8  -18.00   13.87
  -6  -5   7   -5.43   15.18
  -6  -5   6    7.61    9.05
  -6  -5   5   84.96    8.87
  -6  -5   4   13.20    8.83
  -6  -5   3   -1.93   14.12
  -6  -5   2    0.99   13.50
  -6  -5   1   -4.14   12.24
  -6  -5   0   55.70    8.45
  -6  -5  -1    9.96   10.99
  -6  -5  -2    8.37   13.94
  -6  -5  -3  -11.04   16.09
  -6  -5  -4   11.87   15.26
  -6  -5  -5   -6.01   17.10
  -6  -6  10   23.56    9.43
  -6  -6   9   -1.09   13.91
  -6  -6   8    9.88   15.34
  -6  -6   7    5.74   11.70
  -6  -6   6   11.26    9.50
  -6  -6   5   45.84    9.04
  -6  -6   4   18.43    8.14
  -6  -6   3    4.22   13.42
  -6  -6   2   -3.42   14.63
  -6  -6   1   79.43    9.30
  -6  -6   0   12.04   17.37
  -6  -6  -1    9.83   17.36
  -6  -6  -2   14.55   14.16
  -6  -6  -3   16.87   18.22
  -6  -6  -4   -8.99   18.35
  -6  -7   9    5.46   14.09
  -6  -7   8   13.57   14.64
  -6  -7   7   -0.12   15.28
  -6  -7   6   22.38    9.25
  -6  -7   5  149.07   14.64
  -6  -7   4   16.84   15.65
  -6  -7   3   18.34   15.75
  -6  -7   2    4.98   13.93
  -6  -7   1   10.32   16.23
  -6  -7   0    3.83   16.88
  -6  -7  -1  -28.52   18.04
  -6  -7  -2    4.60   17.37
  -6  -8   8  -23.46   18.07
  -6  -8   7   -8.12   16.33
  -6  -8   6  -12.42   16.25
  -6  -8   5    2.73   13.52
  -6  -8   4    0.00   14.11
  -6  -8   3    4.05   16.03
  -6  -8   2    8.15   15.82
  -6  -8   1  -33.17   17.83
  -7   8   2   12.16   17.60
  -7   8   1   14.31   16.59
  -7   8   0   14.78    9.36
  -7   8  -1  -10.62   14.17
  -7   8  -2   13.62   16.73
  -7   8  -3  -14.78   16.30
  -7   8  -4    9.55   17.41
  -7   8  -5   15.02   15.86
  -7   8  -6    0.00   15.85
  -7   7   4  -20.65   20.81
  -7   7   3   11.35   12.61
  -7   7   2  -22.12   18.42
  -7   7   1   22.91    9.75
  -7   7   0  -31.25   15.91
  -7   7  -1   13.23    9.01
  -7   7  -2   -7.12   14.31
  -7   7  -3  -25.82   15.86
  -7   7  -4   13.60   13.82
  -7   7  -5    1.17   13.91
  -7   7  -6   -3.82   17.23
  -7   7  -7    2.95   15.14
  -7   6   5    2.70   16.34
  -7   6   4    5.25   16.34
  -7   6   3    3.94   15.14
  -7   6   2    7.19   15.52
  -7   6   1  -23.13   14.96
  -7   6   0   29.03    8.88
  -7   6  -1  -24.61   16.34
  -7   6  -2   51.14    9.41
  -7   6  -3   -3.13   14.34
  -7   6  -4   11.07   14.01
  -7   6  -5    5.60   15.11
  -7   6  -6   12.31   14.98
  -7   6  -7    1.40   14.71
  -7   6  -8  -14.02   16.35
  -7   5   7  -24.91   17.72
  -7   5   6    9.64   14.61
  -7   5   5   12.70   13.08
  -7   5   4  -25.43   16.31
  -7   5   3   61.56   10.42
  -7   5   2    7.69   14.03
  -7   5   1   56.37    9.08
  -7   5   0    2.38    9.91
  -7   5  -1   12.83   15.49
  -7   5  -2   -4.86   13.68
  -7   5  -3   -7.79   14.26
  -7   5  -4    0.96   12.03
  -7   5  -5   -2.08   14.39
  -7   5  -6   18.11    7.82
  -7   5  -7    8.70   16.09
  -7   5  -8   -1.36   15.20
  -7   4   8   10.77   18.28
  -7   4   7    7.06    9.77
  -7   4   6   11.54   15.69
  -7   4   5  -24.49   15.31
  -7   4   4   -6.67   13.68
  -7   4   3   22.26    7.34
  -7   4   2  -12.00   14.28
  -7   4   1  -17.13   13.88
  -7   4   0   60.54    8.77
  -7   4  -1   -4.55   12.94
  -7   4  -2  128.02    9.75
  -7   4  -3   -2.93   13.31
  -7   4  -4   18.15    7.62
  -7   4  -5   11.22   13.79
  -7   4  -6   14.61   14.61
  -7   4  -7   17.22   15.06
  -7   4  -8    8.12   16.00
  -7   4  -9   -1.45   16.28
  -7   3   9    0.00   17.64
  -7   3   8  -22.56   18.16
  -7   3   7   -2.48   16.46
  -7   3   6   13.20   16.65
  -7   3   5    0.00   15.40
  -7   3   4   18.28   16.47
  -7   3   3   97.25    9.36
  -7   3   2   17.31   12.54
  -7   3   1  119.81   10.90
  -7   3   0   11.62   10.97
  -7   3  -1   18.62    7.04
  -7   3  -2    6.74   10.94
  -7   3  -3    8.88   11.72
  -7   3  -4   11.40    8.13
  -7   3  -5   11.53   14.93
  -7   3  -6   36.91    8.81
  -7   3  -7    5.18   14.20
  -7   3  -8  -13.38   17.93
  -7   3  -9   14.67   11.60
  -7   2   9   45.79   11.13
  -7   2   8    0.00   16.74
  -7   2   7  -15.78   16.51
  -7   2   6   13.47   14.81
  -7   2   5   18.45   13.37
  -7   2   4   -0.84   13.42
  -7   2   3   -5.56   12.60
  -7   2   2   20.96    7.46
  -7   2   1   -0.75   11.30
  -7   2   0  122.15   10.49
  -7   2  -1    8.43    7.62
  -7   2  -2   89.82    8.44
  -7   2  -3   49.65    7.57
  -7   2  -4   11.65   12.80
  -7   2  -5   14.29    9.75
  -7   2  -6   -8.95   14.04
  -7   2  -7    1.31   13.45
  -7   2  -8    8.52    8.82
  -7   2  -9   -1.45   16.23
  -7   1  10   -2.81   16.22
  -7   1   9  -17.19   16.35
  -7   1   8   18.34   14.38
  -7   1   7   -0.20   13.69
  -7   1   6   76.00    9.28
  -7   1   5   60.64    9.19
  -7   1   4   37.86    8.35
  -7   1   3   90.70    8.70
  -7   1   2   -1.48   11.77
  -7   1   1   14.75    6.97
  -7   1   0   11.14    5.81
  -7   1  -1   14.00   11.39
  -7   1  -2    9.97   10.62
  -7   1  -3   11.54    8.35
  -7   1  -4   12.96    9.49
  -7   1  -5  -10.78   13.80
  -7   1  -6   31.20    8.98
  -7   1  -7   -6.20   15.20
  -7   1  -8   13.74   10.69
  -7   0  10  -16.68   16.57
  -7   0   9   17.75   15.63
  -7   0   8   -8.21   16.46
  -7   0   7   18.47   14.78
  -7   0   6   12.08   12.18
  -7   0   5  -17.66   12.35
  -7   0   4   21.58    7.05
  -7   0   3    5.78   10.19
  -7   0   2  -13.20   12.55
  -7   0   1    0.65   11.08
  -7   0   0   73.75    8.03
  -7   0  -1    6.15    8.67
  -7   0  -2   21.57   14.54
  -7   0  -3    5.95   13.05
  -7   0  -4  -11.77   13.43
  -7   0  -5  -26.14   16.89
  -7   0  -6   -9.92   14.93
  -7   0  -7   -4.12   16.20
  -7   0  -8    4.14   16.56
  -7  -1  10   -1.37   14.13
  -7  -1   9    2.63   14.58
  -7  -1   8   16.37   14.59
  -7  -1   7   12.24    9.84
  -7  -1   6   74.27    9.05
  -7  -1   5   -2.45   13.27
  -7  -1   4  106.95    9.76
  -7  -1   3   75.75    7.21
  -7  -1   2   11.57   10.31
  -7  -1   1   12.34    6.58
  -7  -1   0  -17.05   11.62
  -7  -1  -1    9.05   11.22
  -7  -1  -2    6.83   12.30
  -7  -1  -3   13.03   13.62
  -7  -1  -4   13.17    8.74
  -7  -1  -5   -1.08   16.10
  -7  -1  -6   22.41   18.36
  -7  -1  -7   17.03   13.91
  -7  -2  10  -13.68   16.87
  -7  -2   9   46.32    9.26
  -7  -2   8  -18.10   15.10
  -7  -2   7   11.36   14.72
  -7  -2   6   -9.56   12.97
  -7  -2   5    9.10    9.80
  -7  -2   4   21.80    7.35
  -7  -2   3   13.64   11.85
  -7  -2   2   13.32   13.13
  -7  -2   1   -9.86   13.38
  -7  -2   0   44.01    7.97
  -7  -2  -1   32.26    7.64
  -7  -2  -2   28.92    8.37
  -7  -2  -3   64.98    9.04
  -7  -2  -4   12.86   13.86
  -7  -2  -5    6.56   15.15
  -7  -2  -6    1.62   16.06
  -7  -2  -7    6.16   15.16
  -7  -3  10  -17.47   15.38
  -7  -3   9   -3.71   14.04
  -7  -3   8   52.25    8.80
  -7  -3   7    1.97   14.61
  -7  -3   6   67.70    8.38
  -7  -3   5   10.18   13.54
  -7  -3   4   17.91    7.39
  -7  -3   3   30.08    7.79
  -7  -3   2    2.95   12.20
  -7  -3   1    3.93   11.44
  -7  -3   0   -4.93   13.03
  -7  -3  -1   11.19   13.41
  -7  -3  -2   17.34   15.85
  -7  -3  -3  -14.80   14.82
  -7  -3  -4   10.14   16.35
  -7  -3  -5   14.62   13.10
  -7  -3  -6   16.44   16.84
  -7  -4  10    1.30   13.68
  -7  -4   9   -0.11   14.98
  -7  -4   8   -6.84   14.37
  -7  -4   7   11.25   13.28
  -7  -4   6   -6.37   12.56
  -7  -4   5    0.09   12.64
  -7  -4   4   17.31    8.16
  -7  -4   3   -3.26   13.90
  -7  -4   2   38.73    8.23
  -7  -4   1   18.91   12.80
  -7  -4   0   18.43   14.01
  -7  -4  -1    0.92   14.65
  -7  -4  -2    0.00   15.56
  -7  -4  -3   21.54   15.38
  -7  -4  -4  -22.59   16.15
  -7  -4  -5  -24.27   17.34
  -7  -5  10  -12.79   15.48
  -7  -5   9    2.64   13.81
  -7  -5   8    6.10   14.86
  -7  -5   7   20.19   14.05
  -7  -5   6    4.52   15.34
  -7  -5   5   -5.52   14.37
  -7  -5   4  -24.87   15.60
  -7  -5   3   -6.84   14.05
  -7  -5   2  -23.97   16.25
  -7  -5   1   -7.97   15.19
  -7  -5   0   -1.22   16.76
  -7  -5  -1    0.23   10.93
  -7  -5  -2    9.24   13.12
  -7  -5  -3   18.23   15.81
  -7  -5  -4    0.12   17.08
  -7  -6   9    1.51   16.40
  -7  -6   8   10.78   14.89
  -7  -6   7   13.98   12.93
  -7  -6   6    3.73   14.13
  -7  -6   5   -7.32   13.87
  -7  -6   4    7.51   13.37
  -7  -6   3  -10.69   14.68
  -7  -6   2   -8.56   15.42
  -7  -6   1    6.44   10.30
  -7  -6   0    9.38   14.13
  -7  -6  -1  -29.46   18.09
  -7  -6  -2   19.41   17.73
  -7  -7   8  -14.67   16.97
  -7  -7   7    9.57   14.57
  -7  -7   6    4.09   14.75
  -7  -7   5   -5.43   17.04
  -7  -7   4    5.50   15.38
  -7  -7   3   10.81   15.81
  -7  -7   2   -5.46   13.52
  -7  -7   1   -8.74   17.61
  -7  -7   0    6.14   17.16
  -8   7   2   19.48   13.55
  -8   7   1    5.58   17.00
  -8   7   0    8.30   15.16
  -8   7  -1   16.29   15.14
  -8   7  -2  -22.94   17.31
  -8   7  -3    4.10   16.59
  -8   7  -4   19.04   14.34
  -8   7  -5    2.89   14.28
  -8   6   4    7.56   17.12
  -8   6   3   21.08   15.97
  -8   6   2    6.52   16.17
  -8   6   1   11.67    8.89
  -8   6   0   15.44   15.00
  -8   6  -1    6.31   14.80
  -8   6  -2    0.15   17.66
  -8   6  -3   11.26   13.54
  -8   6  -4   22.19   15.18
  -8   6  -5    4.02   14.85
  -8   6  -6   10.74   11.36
  -8   5   6   11.86   18.99
  -8   5   5    0.00   15.65
  -8   5   4   14.44   15.26
  -8   5   3    3.96   14.90
  -8   5   2   -6.29   16.04
  -8   5   1  -13.11   14.64
  -8   5   0  -14.12   13.61
  -8   5  -1   43.12    8.60
  -8   5  -2   26.14    9.62
  -8   5  -3   13.77    7.97
  -8   5  -4    7.33   13.94
  -8   5  -5  -26.10   14.40
  -8   5  -6   10.57   16.71
  -8   5  -7   -8.27   17.82
  -8   4   7    1.61   16.17
  -8   4   6   18.16   16.11
  -8   4   5   -3.92   15.51
  -8   4   4    7.17   14.13
  -8   4   3   43.89    9.64
  -8   4   2  -21.86   14.47
  -8   4   1   10.94   14.25
  -8   4   0    4.41   15.40
  -8   4  -1   38.39    9.54
  -8   4  -2  135.11   12.77
  -8   4  -3    0.19   13.01
  -8   4  -4   38.74    8.42
  -8   4  -5    7.14   12.57
  -8   4  -6   -1.48   14.60
  -8   4  -7   -9.77   16.84
  -8   3   8    7.71   16.39
  -8   3   7    7.16   16.40
  -8   3   6   19.79   17.55
  -8   3   5    4.20   10.25
  -8   3   4   14.08   15.59
  -8   3   3   18.76   16.08
  -8   3   2   35.81    9.35
  -8   3   1  -13.25   16.30
  -8   3   0   27.22    7.45
  -8   3  -1   21.61    8.07
  -8   3  -2   -5.87   14.05
  -8   3  -3    3.48    9.40
  -8   3  -4    7.93   13.74
  -8   3  -5   -7.50   15.41
  -8   3  -6   14.84   11.69
  -8   3  -7   -8.43   16.50
  -8   2   8   11.39   17.41
  -8   2   7    5.26   16.37
  -8   2   6    3.54   15.62
  -8   2   5  -10.40   16.35
  -8   2   4   19.76   14.73
  -8   2   3   73.00    9.32
  -8   2   2   14.32   13.92
  -8   2   1   35.37    8.36
  -8   2   0  106.16   10.25
  -8   2  -1    4.61   13.92
  -8   2  -2   52.38    8.69
  -8   2  -3  -12.76   14.03
  -8   2  -4   37.71    9.14
  -8   2  -5  -14.68   15.46
  -8   2  -6   16.66    8.59
  -8   2  -7   17.72   12.29
  -8   1   9   20.60   16.92
  -8   1   8   21.88    9.62
  -8   1   7   20.40   13.78
  -8   1   6   27.76    9.15
  -8   1   5   10.00   13.33
  -8   1   4   89.81    9.49
  -8   1   3   -1.15   13.47
  -8   1   2   13.11    7.96
  -8   1   1   11.75   13.78
  -8   1   0   29.35    8.20
  -8   1  -1    5.09   12.92
  -8   1  -2    6.55   12.20
  -8   1  -3   90.60   10.12
  -8   1  -4   14.09   13.70
  -8   1  -5    2.26   15.04
  -8   1  -6   17.14   13.92
  -8   1  -7   22.64   15.92
  -8   0   9   13.07   11.93
  -8   0   8   19.42   14.43
  -8   0   7   20.56   14.31
  -8   0   6    8.17   14.40
  -8   0   5  178.40   14.26
  -8   0   4   11.30   14.09
  -8   0   3   -1.07   13.89
  -8   0   2  -16.52   12.52
  -8   0   1   13.82   12.64
  -8   0   0   73.77    8.47
  -8   0  -1  -10.39   14.94
  -8   0  -2   16.47    7.53
  -8   0  -3   15.29   10.61
  -8   0  -4   21.49    8.65
  -8   0  -5    0.11   15.20
  -8   0  -6  -33.26   16.32
  -8   0  -7   18.07   15.97
  -8  -1   9   29.30   10.53
  -8  -1   8   -2.58   14.06
  -8  -1   7   22.70    7.93
  -8  -1   6   16.98   15.08
  -8  -1   5   54.39    9.04
  -8  -1   4   82.66    8.50
  -8  -1   3   19.84    7.74
  -8  -1   2    9.76   13.62
  -8  -1   1   -8.17   12.28
  -8  -1   0    6.95   12.27
  -8  -1  -1    2.28   15.76
  -8  -1  -2  -15.74   14.89
  -8  -1  -3    1.27   13.55
  -8  -1  -4    5.27   15.04
  -8  -1  -5   -7.02   18.50
  -8  -1  -6   13.14   19.33
  -8  -2   9   34.67    9.20
  -8  -2   8   12.51   14.38
  -8  -2   7   33.73    8.39
  -8  -2   6    5.45   12.00
  -8  -2   5   -2.23   14.93
  -8  -2   4    4.10   13.32
  -8  -2   3   55.43    9.08
  -8  -2   2   42.93    8.57
  -8  -2   1   11.67   13.57
  -8  -2   0   19.36   14.91
  -8  -2  -1    4.32   14.29
  -8  -2  -2  132.62   11.26
  -8  -2  -3   29.59    8.11
  -8  -2  -4   19.80   15.09
  -8  -2  -5    1.43   16.93
  -8  -3   9   16.26   16.39
  -8  -3   8   12.40   15.71
  -8  -3   7   -7.02   13.93
  -8  -3   6   69.00    8.96
  -8  -3   5   -3.11   13.23
  -8  -3   4    6.41   14.08
  -8  -3   3   11.86   14.58
  -8  -3   2   20.66    8.74
  -8  -3   1    2.13   14.36
  -8  -3   0   13.97   11.63
  -8  -3  -1  126.02   11.58
  -8  -3  -2   50.06   10.00
  -8  -3  -3   13.02   10.21
  -8  -3  -4   11.17   14.65
  -8  -4   9   -1.30   15.29
  -8  -4   8    1.40   13.67
  -8  -4   7   17.42   15.76
  -8  -4   6    7.17   14.95
  -8  -4   5    3.41   13.91
  -8  -4   4   11.40    8.44
  -8  -4   3   72.25   10.16
  -8  -4   2    7.76   10.56
  -8  -4   1   10.75   14.03
  -8  -4   0    6.09   13.71
  -8  -4  -1   -3.93   15.86
  -8  -4  -2   15.19   14.86
  -8  -4  -3   14.13   15.86
  -8  -5   8   20.50   14.13
  -8  -5   7   -7.91   14.08
  -8  -5   6    7.49   10.18
  -8  -5   5  -11.51   14.87
  -8  -5   4   16.47   14.28
  -8  -5   3  -13.66   15.68
  -8  -5   2    7.70   14.73
  -8  -5   1    7.82   14.09
  -8  -5   0  -12.15   15.21
  -8  -5  -1   18.58   15.72
  -8  -5  -2   10.56   16.41
  -8  -6   7    7.19   14.69
  -8  -6   6   18.39    7.85
  -8  -6   5   20.76    9.21
  -8  -6   4  -16.47   15.77
  -8  -6   3    5.45   15.17
  -8  -6   2   11.04    8.43
  -8  -6   1  -16.17   16.36
  -8  -6   0    6.19   18.39
  -9   6   2    4.58   16.54
  -9   6   1   32.61    9.34
  -9   6   0   -1.55   16.41
  -9   6  -1   19.38   10.19
  -9   6  -2    6.95   15.80
  -9   6  -3   14.07   15.07
  -9   6  -4   13.94   14.75
  -9   5   4  -23.50   17.07
  -9   5   3  -13.01   15.91
  -9   5   2   33.72    9.24
  -9   5   1   -6.47   17.53
  -9   5   0   21.28   17.87
  -9   5  -1   13.70    9.72
  -9   5  -2    3.62   17.34
  -9   5  -3  -10.09   15.51
  -9   5  -4  -24.49   16.25
  -9   5  -5   -5.45   16.07
  -9   4   5    5.58   16.60
  -9   4   4   -1.26   16.11
  -9   4   3   13.14   16.80
  -9   4   2  -14.23   13.86
  -9   4   1   38.27    9.40
  -9   4   0    1.38   15.78
  -9   4  -1    6.27   16.68
  -9   4  -2   14.33    9.70
  -9   4  -3   -0.11   15.57
  -9   4  -4    6.41   14.44
  -9   4  -5   -4.16   16.36
  -9   4  -6   11.53   14.69
  -9   3   6  -32.58   18.13
  -9   3   5   25.44    9.31
  -9   3   4    5.29   16.39
  -9   3   3   21.29    8.76
  -9   3   2   19.44   14.25
  -9   3   1    4.77   10.27
  -9   3   0    5.89   13.80
  -9   3  -1  -21.64   14.65
  -9   3  -2   11.26   15.65
  -9   3  -3  -10.73   13.97
  -9   3  -4   14.53    8.61
  -9   3  -5   -8.29   13.96
  -9   3  -6  -30.81   17.10
  -9   2   7   24.90    9.11
  -9   2   6  -22.47   16.33
  -9   2   5   -2.74   13.69
  -9   2   4   16.55   16.00
  -9   2   3   16.14    8.89
  -9   2   2   19.17   13.67
  -9   2   1   59.44    9.72
  -9   2   0   -0.99   12.96
  -9   2  -1   25.74    8.55
  -9   2  -2    8.19   13.00
  -9   2  -3   15.83    7.74
  -9   2  -4  -27.88   17.88
  -9   2  -5   -4.16   15.75
  -9   2  -6   21.95   16.53
  -9   1   8  -15.04   18.17
  -9   1   7   34.87    9.51
  -9   1   6   13.25   15.35
  -9   1   5   12.96   15.62
  -9   1   4    4.84   15.70
  -9   1   3   15.80   13.36
  -9   1   2   -5.92   13.22
  -9   1   1   12.85   14.28
  -9   1   0   -3.47   15.66
  -9   1  -1    2.42   14.35
  -9   1  -2    7.34   14.92
  -9   1  -3  -19.11   16.16
  -9   1  -4    5.18   15.38
  -9   1  -5   16.94   16.71
  -9   0   8   18.81   13.28
  -9   0   7  -13.62   15.14
  -9   0   6   -5.32   16.93
  -9   0   5   17.23    8.12
  -9   0   4    8.11   16.10
  -9   0   3   17.70   15.13
  -9   0   2   -4.32   12.15
  -9   0   1   18.89    8.71
  -9   0   0    1.32   15.96
  -9   0  -1   -1.21   14.71
  -9   0  -2   21.01   14.30
  -9   0  -3   10.56   14.94
  -9   0  -4  -27.88   17.36
  -9   0  -5  -17.44   18.78
  -9  -1   8    3.82   11.40
  -9  -1   7   24.44    9.48
  -9  -1   6  -13.85   14.52
  -9  -1   5   16.39    7.73
  -9  -1   4   15.71   12.15
  -9  -1   3    1.12   14.05
  -9  -1   2  -22.21   13.74
  -9  -1   1    3.52   13.35
  -9  -1   0    0.00   12.75
  -9  -1  -1   12.90    9.97
  -9  -1  -2   -2.48   15.41
  -9  -1  -3   -0.24   16.67
  -9  -1  -4   17.28   15.06
  -9  -2   8   -2.71   13.94
  -9  -2   7   11.67   14.02
  -9  -2   6    3.19    8.33
  -9  -2   5    3.73   15.45
  -9  -2   4   28.43    8.45
  -9  -2   3   14.30    8.50
  -9  -2   2   22.04   14.78
  -9  -2   1   -2.58   16.60
  -9  -2   0  -14.86   15.06
  -9  -2  -1  -28.30   16.17
  -9  -2  -2    9.23   13.63
  -9  -2  -3   18.33   14.38
  -9  -2  -4  -16.55   18.12
  -9  -3   8   -5.64   14.79
  -9  -3   7    9.26   17.15
  -9  -3   6  -21.85   16.80
  -9  -3   5   14.22    7.81
  -9  -3   4  -17.69   15.06
  -9  -3   3    1.35   14.49
  -9  -3   2  -19.25   17.19
  -9  -3   1   18.07   13.90
  -9  -3   0   -0.10   15.01
  -9  -3  -1   -4.03   15.66
  -9  -3  -2   -1.55   17.40
  -9  -3  -3   11.87   14.70
  -9  -4   7   -6.89   14.57
  -9  -4   6   14.49    8.84
  -9  -4   5    4.11   14.48
  -9  -4   4   27.03    8.72
  -9  -4   3   -6.40   15.60
  -9  -4   2   -8.10   15.70
  -9  -4   1   18.08   15.93
  -9  -4   0  -18.77   17.53
  -9  -4  -1  -13.24   18.01
  -9  -5   6    0.00   14.55
  -9  -5   5    8.75   14.57
  -9  -5   4   -4.05   16.57
  -9  -5   3    4.47   15.73
  -9  -5   2   -0.65   10.22
  -9  -5   1    8.96   14.18
 -10   5   0    3.01   16.19
 -10   4   3    2.99   17.33
 -10   4   2   -7.16   17.18
 -10   4   1  -10.42   15.92
 -10   4   0   -7.23   15.69
 -10   4  -1    1.15   16.34
 -10   4  -2   15.13   12.34
 -10   4  -3   15.49   16.84
 -10   3   4   -5.85   17.26
 -10   3   3    1.35   15.93
 -10   3   2   13.94   14.75
 -10   3   1   15.56   16.43
 -10   3   0   30.88    8.14
 -10   3  -1    2.59   14.63
 -10   3  -2   42.44   10.33
 -10   3  -3    1.49   14.60
 -10   2   5  -10.39   17.56
 -10   2   4    2.77   15.02
 -10   2   3   -9.61   18.64
 -10   2   2   11.23   19.81
 -10   2   1   25.01   16.84
 -10   2   0    7.63   14.52
 -10   2  -1  -19.46   17.08
 -10   2  -2   10.98   14.40
 -10   2  -3   18.93   14.20
 -10   1   6   -1.51   17.69
 -10   1   5   -3.12   15.11
 -10   1   4  -21.41   15.45
 -10   1   3   -1.18   15.99
 -10   1   2    2.48   16.05
 -10   1   1    6.53   10.66
 -10   1   0   18.48    9.69
 -10   1  -1  -29.29   16.97
 -10   1  -2   18.60   14.93
 -10   1  -3   13.93    8.47
 -10   0   6   18.01    9.11
 -10   0   5   -4.27   15.77
 -10   0   4   65.26   10.54
 -10   0   3   -2.31   13.91
 -10   0   2   12.60   15.95
 -10   0   1   -6.82   14.95
 -10   0   0  -25.95   17.48
 -10   0  -1  -11.18   16.31
 -10   0  -2   -4.43   15.60
 -10   0  -3    3.12   15.45
 -10  -1   6    9.95   13.88
 -10  -1   5   52.24    9.39
 -10  -1   4   14.89   11.09
 -10  -1   3   13.09   13.01
 -10  -1   2   -1.26   16.13
 -10  -1   1  -16.20   16.31
 -10  -1   0   -6.94   15.25
 -10  -1  -1    2.78   15.50
 -10  -1  -2   -4.34   17.26
 -10  -2   6  -28.15   16.77
 -10  -2   5   12.07    9.22
 -10  -2   4   41.95    8.46
 -10  -2   3    9.69   15.59
 -10  -2   2    4.26   16.89
 -10  -2   1   -1.52   16.12
 -10  -2   0   14.30   15.77
 -10  -2  -1    5.99   14.75
 -10  -3   5   -2.79   15.17
 -10  -3   4    7.36   16.59
 -10  -3   3   13.85   11.66
 -10  -3   2   16.38   13.97
 -10  -3   1   -4.31   17.15
;

_shelx_hkl_checksum   86146

#==============================================================================
#     End of CIF
#==============================================================================
